<?xml version="1.0" encoding="UTF-8"?>

<routes xmlns:xsi="http://www.w3.org/2001/XMLSchema-instance" xsi:noNamespaceSchemaLocation="http://sumo.dlr.de/xsd/routes_file.xsd">
    <vType id="ped_pedestrian" vClass="pedestrian"/>
    <person id="ped0" depart="0.00" type="ped_pedestrian">
        <personTrip from="34149696#1" to="-127003519#1" modes="public"/>
    </person>
    <person id="ped1" depart="2.00" type="ped_pedestrian">
        <personTrip from="127003506" to="1208811336#2" modes="public"/>
    </person>
    <person id="ped2" depart="4.00" type="ped_pedestrian">
        <personTrip from="506392661#0" to="39010319#1" modes="public"/>
    </person>
    <person id="ped3" depart="6.00" type="ped_pedestrian">
        <personTrip from="724164224#4" to="-172547682" modes="public"/>
    </person>
    <person id="ped4" depart="8.00" type="ped_pedestrian">
        <personTrip from="1319017081" to="-1282212260" modes="public"/>
    </person>
    <person id="ped5" depart="10.00" type="ped_pedestrian">
        <personTrip from="1182526121" to="135665042" modes="public"/>
    </person>
    <person id="ped6" depart="12.00" type="ped_pedestrian">
        <personTrip from="-127003526#1" to="1082480235#2" modes="public"/>
    </person>
    <person id="ped7" depart="14.00" type="ped_pedestrian">
        <personTrip from="353879731#2" to="157719265#1" modes="public"/>
    </person>
    <person id="ped8" depart="16.00" type="ped_pedestrian">
        <personTrip from="1187256682#1" to="240517986#1" modes="public"/>
    </person>
    <person id="ped9" depart="18.00" type="ped_pedestrian">
        <personTrip from="542301098#0" to="-111757790#1" modes="public"/>
    </person>
    <person id="ped10" depart="20.00" type="ped_pedestrian">
        <personTrip from="542073630#0" to="436576336" modes="public"/>
    </person>
    <person id="ped11" depart="22.00" type="ped_pedestrian">
        <personTrip from="1282212276#1" to="-541716009" modes="public"/>
    </person>
    <person id="ped12" depart="24.00" type="ped_pedestrian">
        <personTrip from="837681461" to="1282212266" modes="public"/>
    </person>
    <person id="ped13" depart="26.00" type="ped_pedestrian">
        <personTrip from="-217893595#1" to="-243993887" modes="public"/>
    </person>
    <person id="ped14" depart="28.00" type="ped_pedestrian">
        <personTrip from="559879336#2" to="268931385#1" modes="public"/>
    </person>
    <person id="ped15" depart="30.00" type="ped_pedestrian">
        <personTrip from="542157797" to="504776812#0" modes="public"/>
    </person>
    <person id="ped16" depart="32.00" type="ped_pedestrian">
        <personTrip from="152276006#1" to="939109602#2" modes="public"/>
    </person>
    <person id="ped17" depart="34.00" type="ped_pedestrian">
        <personTrip from="1282212430" to="157721992" modes="public"/>
    </person>
    <person id="ped18" depart="36.00" type="ped_pedestrian">
        <personTrip from="556492121" to="30008037#2" modes="public"/>
    </person>
    <person id="ped19" depart="38.00" type="ped_pedestrian">
        <personTrip from="686659357" to="176509601" modes="public"/>
    </person>
    <person id="ped20" depart="40.00" type="ped_pedestrian">
        <personTrip from="442754982#0" to="-135435668#1" modes="public"/>
    </person>
    <person id="ped21" depart="42.00" type="ped_pedestrian">
        <personTrip from="1209354582#2" to="1280691178" modes="public"/>
    </person>
    <person id="ped22" depart="44.00" type="ped_pedestrian">
        <personTrip from="-157721967#1" to="1222182069" modes="public"/>
    </person>
    <person id="ped23" depart="46.00" type="ped_pedestrian">
        <personTrip from="-255784627" to="127003540#2" modes="public"/>
    </person>
    <person id="ped24" depart="48.00" type="ped_pedestrian">
        <personTrip from="33654363#4" to="1282212383#1" modes="public"/>
    </person>
    <person id="ped25" depart="50.00" type="ped_pedestrian">
        <personTrip from="1282212413" to="111760343#1" modes="public"/>
    </person>
    <person id="ped26" depart="52.00" type="ped_pedestrian">
        <personTrip from="1265321927" to="825387234#1" modes="public"/>
    </person>
    <person id="ped27" depart="54.00" type="ped_pedestrian">
        <personTrip from="353879556#1" to="276595933#3" modes="public"/>
    </person>
    <person id="ped28" depart="56.00" type="ped_pedestrian">
        <personTrip from="-560761988" to="502202666" modes="public"/>
    </person>
    <person id="ped29" depart="58.00" type="ped_pedestrian">
        <personTrip from="-55806518#2" to="1282212433#2" modes="public"/>
    </person>
    <person id="ped30" depart="60.00" type="ped_pedestrian">
        <personTrip from="962929631#1" to="34149770#0" modes="public"/>
    </person>
    <person id="ped31" depart="62.00" type="ped_pedestrian">
        <personTrip from="157725250#0" to="411819525" modes="public"/>
    </person>
    <person id="ped32" depart="64.00" type="ped_pedestrian">
        <personTrip from="559879308" to="538510064#1" modes="public"/>
    </person>
    <person id="ped33" depart="66.00" type="ped_pedestrian">
        <personTrip from="122054851#2" to="-131114432#1" modes="public"/>
    </person>
    <person id="ped34" depart="68.00" type="ped_pedestrian">
        <personTrip from="1280691340#1" to="1265321930#0" modes="public"/>
    </person>
    <person id="ped35" depart="70.00" type="ped_pedestrian">
        <personTrip from="1122735505#2" to="826015636#3" modes="public"/>
    </person>
    <person id="ped36" depart="72.00" type="ped_pedestrian">
        <personTrip from="694040992#1" to="1280691338" modes="public"/>
    </person>
    <person id="ped37" depart="74.00" type="ped_pedestrian">
        <personTrip from="358156366#0" to="1284472214#3" modes="public"/>
    </person>
    <person id="ped38" depart="76.00" type="ped_pedestrian">
        <personTrip from="791113512#0" to="135448695#2" modes="public"/>
    </person>
    <person id="ped39" depart="78.00" type="ped_pedestrian">
        <personTrip from="1265321919#1" to="1260767064#1" modes="public"/>
    </person>
    <person id="ped40" depart="80.00" type="ped_pedestrian">
        <personTrip from="160359811#1" to="1263512691#1" modes="public"/>
    </person>
    <person id="ped41" depart="82.00" type="ped_pedestrian">
        <personTrip from="238371020#1" to="788245333#0" modes="public"/>
    </person>
    <person id="ped42" depart="84.00" type="ped_pedestrian">
        <personTrip from="131114434#0" to="1186574116#0" modes="public"/>
    </person>
    <person id="ped43" depart="86.00" type="ped_pedestrian">
        <personTrip from="964357194#3" to="135670542#0" modes="public"/>
    </person>
    <person id="ped44" depart="88.00" type="ped_pedestrian">
        <personTrip from="-176509606#1" to="-135435671#2" modes="public"/>
    </person>
    <person id="ped45" depart="90.00" type="ped_pedestrian">
        <personTrip from="-34149770#0" to="329064661#2" modes="public"/>
    </person>
    <person id="ped46" depart="92.00" type="ped_pedestrian">
        <personTrip from="539303698#0" to="1319017085#0" modes="public"/>
    </person>
    <person id="ped47" depart="94.00" type="ped_pedestrian">
        <personTrip from="-135660343#1" to="1282212437#1" modes="public"/>
    </person>
    <person id="ped48" depart="96.00" type="ped_pedestrian">
        <personTrip from="964357193#0" to="146573383#1" modes="public"/>
    </person>
    <person id="ped49" depart="98.00" type="ped_pedestrian">
        <personTrip from="939109600#1" to="658633126" modes="public"/>
    </person>
    <person id="ped50" depart="100.00" type="ped_pedestrian">
        <personTrip from="-122054851#2" to="496192032" modes="public"/>
    </person>
    <person id="ped51" depart="102.00" type="ped_pedestrian">
        <personTrip from="411775060" to="152278371#0" modes="public"/>
    </person>
    <person id="ped52" depart="104.00" type="ped_pedestrian">
        <personTrip from="1265321924" to="34262450#1" modes="public"/>
    </person>
    <person id="ped53" depart="106.00" type="ped_pedestrian">
        <personTrip from="-34633578#0" to="135318911#1" modes="public"/>
    </person>
    <person id="ped54" depart="108.00" type="ped_pedestrian">
        <personTrip from="135440104#0" to="837681451" modes="public"/>
    </person>
    <person id="ped55" depart="110.00" type="ped_pedestrian">
        <personTrip from="694040992#0" to="1265321915#0" modes="public"/>
    </person>
    <person id="ped56" depart="112.00" type="ped_pedestrian">
        <personTrip from="135663881#2" to="-694100499#1" modes="public"/>
    </person>
    <person id="ped57" depart="114.00" type="ped_pedestrian">
        <personTrip from="791113508#1" to="694040972#2" modes="public"/>
    </person>
    <person id="ped58" depart="115.99" type="ped_pedestrian">
        <personTrip from="1280691222" to="34149656" modes="public"/>
    </person>
    <person id="ped59" depart="117.99" type="ped_pedestrian">
        <personTrip from="276595933#2" to="-541678034" modes="public"/>
    </person>
    <person id="ped60" depart="119.99" type="ped_pedestrian">
        <personTrip from="507751989" to="157711184#1" modes="public"/>
    </person>
    <person id="ped61" depart="121.99" type="ped_pedestrian">
        <personTrip from="538590275#0" to="146573383#4" modes="public"/>
    </person>
    <person id="ped62" depart="123.99" type="ped_pedestrian">
        <personTrip from="-107701798#0" to="1280691389#1" modes="public"/>
    </person>
    <person id="ped63" depart="125.99" type="ped_pedestrian">
        <personTrip from="-127003472#1" to="818847860" modes="public"/>
    </person>
    <person id="ped64" depart="127.99" type="ped_pedestrian">
        <personTrip from="694100498" to="55805248#3" modes="public"/>
    </person>
    <person id="ped65" depart="129.99" type="ped_pedestrian">
        <personTrip from="1280691247#1" to="-135641885#0" modes="public"/>
    </person>
    <person id="ped66" depart="131.99" type="ped_pedestrian">
        <personTrip from="694061062#1" to="837681429" modes="public"/>
    </person>
    <person id="ped67" depart="133.99" type="ped_pedestrian">
        <personTrip from="-172547674#1" to="135662468#0" modes="public"/>
    </person>
    <person id="ped68" depart="135.99" type="ped_pedestrian">
        <personTrip from="-135663874#2" to="507548451" modes="public"/>
    </person>
    <person id="ped69" depart="137.99" type="ped_pedestrian">
        <personTrip from="528662243" to="-39010321" modes="public"/>
    </person>
    <person id="ped70" depart="139.99" type="ped_pedestrian">
        <personTrip from="135660320#0" to="157721987#0" modes="public"/>
    </person>
    <person id="ped71" depart="141.99" type="ped_pedestrian">
        <personTrip from="1265321919#1" to="694040980#2" modes="public"/>
    </person>
    <person id="ped72" depart="143.99" type="ped_pedestrian">
        <personTrip from="1319017086#1" to="1126924948#0" modes="public"/>
    </person>
    <person id="ped73" depart="145.99" type="ped_pedestrian">
        <personTrip from="157711184#1" to="504776812#0" modes="public"/>
    </person>
    <person id="ped74" depart="147.99" type="ped_pedestrian">
        <personTrip from="1092110078" to="1280691312#1" modes="public"/>
    </person>
    <person id="ped75" depart="149.99" type="ped_pedestrian">
        <personTrip from="964357192#1" to="353879731#2" modes="public"/>
    </person>
    <person id="ped76" depart="151.99" type="ped_pedestrian">
        <personTrip from="135422367#2" to="145634786#2" modes="public"/>
    </person>
    <person id="ped77" depart="153.99" type="ped_pedestrian">
        <personTrip from="-358164598#4" to="1209354577#0" modes="public"/>
    </person>
    <person id="ped78" depart="155.99" type="ped_pedestrian">
        <personTrip from="1282212270" to="240517985#2" modes="public"/>
    </person>
    <person id="ped79" depart="157.99" type="ped_pedestrian">
        <personTrip from="122054852#2" to="1187256682#1" modes="public"/>
    </person>
    <person id="ped80" depart="159.99" type="ped_pedestrian">
        <personTrip from="-135667682#1" to="329064668" modes="public"/>
    </person>
    <person id="ped81" depart="161.99" type="ped_pedestrian">
        <personTrip from="122054851#1" to="789117555#5" modes="public"/>
    </person>
    <person id="ped82" depart="163.99" type="ped_pedestrian">
        <personTrip from="615272507" to="-135667682#1" modes="public"/>
    </person>
    <person id="ped83" depart="165.99" type="ped_pedestrian">
        <personTrip from="124425269" to="358234065" modes="public"/>
    </person>
    <person id="ped84" depart="167.99" type="ped_pedestrian">
        <personTrip from="118248809#0" to="-411775913" modes="public"/>
    </person>
    <person id="ped85" depart="169.99" type="ped_pedestrian">
        <personTrip from="822638780#1" to="172547669#3" modes="public"/>
    </person>
    <person id="ped86" depart="171.99" type="ped_pedestrian">
        <personTrip from="135643613" to="538984332" modes="public"/>
    </person>
    <person id="ped87" depart="173.99" type="ped_pedestrian">
        <personTrip from="542301096#0" to="-846798136#1" modes="public"/>
    </person>
    <person id="ped88" depart="175.99" type="ped_pedestrian">
        <personTrip from="-243993887" to="135255191#2" modes="public"/>
    </person>
    <person id="ped89" depart="177.99" type="ped_pedestrian">
        <personTrip from="1319017086#2" to="135641885#1" modes="public"/>
    </person>
    <person id="ped90" depart="179.99" type="ped_pedestrian">
        <personTrip from="502202666" to="372714708" modes="public"/>
    </person>
    <person id="ped91" depart="181.99" type="ped_pedestrian">
        <personTrip from="959824000" to="-246180935#3" modes="public"/>
    </person>
    <person id="ped92" depart="183.99" type="ped_pedestrian">
        <personTrip from="131114437#1" to="1282212274#1" modes="public"/>
    </person>
    <person id="ped93" depart="185.99" type="ped_pedestrian">
        <personTrip from="686659357" to="1261975607" modes="public"/>
    </person>
    <person id="ped94" depart="187.99" type="ped_pedestrian">
        <personTrip from="-846798136#1" to="135440071#1" modes="public"/>
    </person>
    <person id="ped95" depart="189.99" type="ped_pedestrian">
        <personTrip from="1319017081" to="127003541#0" modes="public"/>
    </person>
    <person id="ped96" depart="191.99" type="ped_pedestrian">
        <personTrip from="1261975610" to="814011676#1" modes="public"/>
    </person>
    <person id="ped97" depart="193.99" type="ped_pedestrian">
        <personTrip from="135435671#4" to="686659354" modes="public"/>
    </person>
    <person id="ped98" depart="195.99" type="ped_pedestrian">
        <personTrip from="157721987#1" to="-135448689" modes="public"/>
    </person>
    <person id="ped99" depart="197.99" type="ped_pedestrian">
        <personTrip from="979527734#0" to="55814559#0" modes="public"/>
    </person>
    <person id="ped100" depart="199.99" type="ped_pedestrian">
        <personTrip from="939109590" to="818847853#0" modes="public"/>
    </person>
    <person id="ped101" depart="201.99" type="ped_pedestrian">
        <personTrip from="560794006" to="-55814559#0" modes="public"/>
    </person>
    <person id="ped102" depart="203.99" type="ped_pedestrian">
        <personTrip from="135662466" to="118248805" modes="public"/>
    </person>
    <person id="ped103" depart="205.99" type="ped_pedestrian">
        <personTrip from="131114434#6" to="-135641886" modes="public"/>
    </person>
    <person id="ped104" depart="207.99" type="ped_pedestrian">
        <personTrip from="1282212433#1" to="960101269" modes="public"/>
    </person>
    <person id="ped105" depart="209.99" type="ped_pedestrian">
        <personTrip from="1265321920" to="538945666#1" modes="public"/>
    </person>
    <person id="ped106" depart="211.99" type="ped_pedestrian">
        <personTrip from="135441163#2" to="1319017086#0" modes="public"/>
    </person>
    <person id="ped107" depart="213.99" type="ped_pedestrian">
        <personTrip from="837681461" to="964357192#2" modes="public"/>
    </person>
    <person id="ped108" depart="215.99" type="ped_pedestrian">
        <personTrip from="157725236#0" to="494457231#0" modes="public"/>
    </person>
    <person id="ped109" depart="217.99" type="ped_pedestrian">
        <personTrip from="-541689243" to="1280691219#0" modes="public"/>
    </person>
    <person id="ped110" depart="219.99" type="ped_pedestrian">
        <personTrip from="917634354" to="176509605#4" modes="public"/>
    </person>
    <person id="ped111" depart="221.99" type="ped_pedestrian">
        <personTrip from="157717532" to="507407946#0" modes="public"/>
    </person>
    <person id="ped112" depart="223.99" type="ped_pedestrian">
        <personTrip from="-135641874#4" to="238371020#0" modes="public"/>
    </person>
    <person id="ped113" depart="225.99" type="ped_pedestrian">
        <personTrip from="135664385#1" to="561485246#1" modes="public"/>
    </person>
    <person id="ped114" depart="227.99" type="ped_pedestrian">
        <personTrip from="-556303396#1" to="845894784#2" modes="public"/>
    </person>
    <person id="ped115" depart="229.99" type="ped_pedestrian">
        <personTrip from="-157721980" to="-794561702#1" modes="public"/>
    </person>
    <person id="ped116" depart="231.99" type="ped_pedestrian">
        <personTrip from="243899307#4" to="38697262" modes="public"/>
    </person>
    <person id="ped117" depart="233.99" type="ped_pedestrian">
        <personTrip from="1230883259#1" to="-358164598#0" modes="public"/>
    </person>
    <person id="ped118" depart="235.99" type="ped_pedestrian">
        <personTrip from="702261942" to="1260767064#0" modes="public"/>
    </person>
    <person id="ped119" depart="237.99" type="ped_pedestrian">
        <personTrip from="243899307#3" to="314932772" modes="public"/>
    </person>
    <person id="ped120" depart="239.99" type="ped_pedestrian">
        <personTrip from="1312446724" to="238119116" modes="public"/>
    </person>
    <person id="ped121" depart="241.99" type="ped_pedestrian">
        <personTrip from="145634791#3" to="818849192#8" modes="public"/>
    </person>
    <person id="ped122" depart="243.99" type="ped_pedestrian">
        <personTrip from="1116526242#1" to="494457224#0" modes="public"/>
    </person>
    <person id="ped123" depart="245.99" type="ped_pedestrian">
        <personTrip from="124425270#1" to="1284472214#4" modes="public"/>
    </person>
    <person id="ped124" depart="247.99" type="ped_pedestrian">
        <personTrip from="368615949" to="1280691229#1" modes="public"/>
    </person>
    <person id="ped125" depart="249.99" type="ped_pedestrian">
        <personTrip from="1280691341" to="507544659#14" modes="public"/>
    </person>
    <person id="ped126" depart="251.99" type="ped_pedestrian">
        <personTrip from="-135667755#0" to="135448691#1" modes="public"/>
    </person>
    <person id="ped127" depart="253.99" type="ped_pedestrian">
        <personTrip from="979527732#0" to="964357193#0" modes="public"/>
    </person>
    <person id="ped128" depart="255.99" type="ped_pedestrian">
        <personTrip from="-135674908#0" to="118248798#1" modes="public"/>
    </person>
    <person id="ped129" depart="257.99" type="ped_pedestrian">
        <personTrip from="1265321920" to="818849192#4" modes="public"/>
    </person>
    <person id="ped130" depart="259.99" type="ped_pedestrian">
        <personTrip from="694100500#3" to="694100499#1" modes="public"/>
    </person>
    <person id="ped131" depart="261.99" type="ped_pedestrian">
        <personTrip from="1282212411" to="-556303397#0" modes="public"/>
    </person>
    <person id="ped132" depart="263.99" type="ped_pedestrian">
        <personTrip from="55807430" to="441503022" modes="public"/>
    </person>
    <person id="ped133" depart="265.99" type="ped_pedestrian">
        <personTrip from="289807438" to="962927531#0" modes="public"/>
    </person>
    <person id="ped134" depart="267.99" type="ped_pedestrian">
        <personTrip from="353906986#8" to="-1122735505#0" modes="public"/>
    </person>
    <person id="ped135" depart="269.99" type="ped_pedestrian">
        <personTrip from="542401261#3" to="1280691229#0" modes="public"/>
    </person>
    <person id="ped136" depart="271.99" type="ped_pedestrian">
        <personTrip from="358171129#3" to="825387246" modes="public"/>
    </person>
    <person id="ped137" depart="273.99" type="ped_pedestrian">
        <personTrip from="-415657387" to="-353879556#0" modes="public"/>
    </person>
    <person id="ped138" depart="275.99" type="ped_pedestrian">
        <personTrip from="-333986574" to="157721995#1" modes="public"/>
    </person>
    <person id="ped139" depart="277.99" type="ped_pedestrian">
        <personTrip from="127003496#1" to="269505416#1" modes="public"/>
    </person>
    <person id="ped140" depart="279.99" type="ped_pedestrian">
        <personTrip from="494457226#3" to="1092110085" modes="public"/>
    </person>
    <person id="ped141" depart="281.99" type="ped_pedestrian">
        <personTrip from="33654363#0" to="1265321915#1" modes="public"/>
    </person>
    <person id="ped142" depart="283.99" type="ped_pedestrian">
        <personTrip from="135662474#0" to="789117555#5" modes="public"/>
    </person>
    <person id="ped143" depart="285.99" type="ped_pedestrian">
        <personTrip from="559879334#1" to="-217893595#0" modes="public"/>
    </person>
    <person id="ped144" depart="287.99" type="ped_pedestrian">
        <personTrip from="1319017086#2" to="127003520" modes="public"/>
    </person>
    <person id="ped145" depart="289.99" type="ped_pedestrian">
        <personTrip from="-1091689746" to="538058564#1" modes="public"/>
    </person>
    <person id="ped146" depart="291.99" type="ped_pedestrian">
        <personTrip from="34149627#0" to="1263512690#2" modes="public"/>
    </person>
    <person id="ped147" depart="293.99" type="ped_pedestrian">
        <personTrip from="506423028" to="157721991" modes="public"/>
    </person>
    <person id="ped148" depart="295.99" type="ped_pedestrian">
        <personTrip from="135165691#1" to="-1187256682#0" modes="public"/>
    </person>
    <person id="ped149" depart="297.99" type="ped_pedestrian">
        <personTrip from="-144462184#1" to="702217550" modes="public"/>
    </person>
    <person id="ped150" depart="299.99" type="ped_pedestrian">
        <personTrip from="789117555#1" to="157719265#3" modes="public"/>
    </person>
    <person id="ped151" depart="301.99" type="ped_pedestrian">
        <personTrip from="55808454#2" to="231909294" modes="public"/>
    </person>
    <person id="ped152" depart="303.99" type="ped_pedestrian">
        <personTrip from="-502202660" to="-38697266#0" modes="public"/>
    </person>
    <person id="ped153" depart="305.99" type="ped_pedestrian">
        <personTrip from="1280691249#0" to="788245334#2" modes="public"/>
    </person>
    <person id="ped154" depart="307.99" type="ped_pedestrian">
        <personTrip from="541678052" to="658633126" modes="public"/>
    </person>
    <person id="ped155" depart="309.99" type="ped_pedestrian">
        <personTrip from="788245334#2" to="1121680155" modes="public"/>
    </person>
    <person id="ped156" depart="311.99" type="ped_pedestrian">
        <personTrip from="1261975609#1" to="-290560652#0" modes="public"/>
    </person>
    <person id="ped157" depart="313.99" type="ped_pedestrian">
        <personTrip from="538590277" to="702217553#1" modes="public"/>
    </person>
    <person id="ped158" depart="315.99" type="ped_pedestrian">
        <personTrip from="131114440#2" to="329063515" modes="public"/>
    </person>
    <person id="ped159" depart="317.99" type="ped_pedestrian">
        <personTrip from="-541689243" to="818847861#1" modes="public"/>
    </person>
    <person id="ped160" depart="319.99" type="ped_pedestrian">
        <personTrip from="686659391#0" to="939109625" modes="public"/>
    </person>
    <person id="ped161" depart="321.99" type="ped_pedestrian">
        <personTrip from="542301100#0" to="700682687#0" modes="public"/>
    </person>
    <person id="ped162" depart="323.99" type="ped_pedestrian">
        <personTrip from="-127003519#0" to="506392661#0" modes="public"/>
    </person>
    <person id="ped163" depart="325.99" type="ped_pedestrian">
        <personTrip from="1280691440" to="818847865" modes="public"/>
    </person>
    <person id="ped164" depart="327.99" type="ped_pedestrian">
        <personTrip from="541729721#1" to="686659370" modes="public"/>
    </person>
    <person id="ped165" depart="329.99" type="ped_pedestrian">
        <personTrip from="542301100#0" to="1265321924" modes="public"/>
    </person>
    <person id="ped166" depart="331.99" type="ped_pedestrian">
        <personTrip from="539303683#1" to="-34149627#0" modes="public"/>
    </person>
    <person id="ped167" depart="333.99" type="ped_pedestrian">
        <personTrip from="694040980#1" to="615272484" modes="public"/>
    </person>
    <person id="ped168" depart="335.99" type="ped_pedestrian">
        <personTrip from="1208811336#0" to="542401261#1" modes="public"/>
    </person>
    <person id="ped169" depart="337.99" type="ped_pedestrian">
        <personTrip from="135448702" to="1280691245#4" modes="public"/>
    </person>
    <person id="ped170" depart="339.99" type="ped_pedestrian">
        <personTrip from="541678034" to="1209354582#1" modes="public"/>
    </person>
    <person id="ped171" depart="341.99" type="ped_pedestrian">
        <personTrip from="-127003498#2" to="-959712387" modes="public"/>
    </person>
    <person id="ped172" depart="343.99" type="ped_pedestrian">
        <personTrip from="1280691417#0" to="686659390#1" modes="public"/>
    </person>
    <person id="ped173" depart="345.99" type="ped_pedestrian">
        <personTrip from="911051618#1" to="127003541#2" modes="public"/>
    </person>
    <person id="ped174" depart="347.98" type="ped_pedestrian">
        <personTrip from="34262489#1" to="131114434#1" modes="public"/>
    </person>
    <person id="ped175" depart="349.98" type="ped_pedestrian">
        <personTrip from="959161037#0" to="152276006#1" modes="public"/>
    </person>
    <person id="ped176" depart="351.98" type="ped_pedestrian">
        <personTrip from="825387248" to="-353879556#0" modes="public"/>
    </person>
    <person id="ped177" depart="353.98" type="ped_pedestrian">
        <personTrip from="939109600#0" to="-694100499#1" modes="public"/>
    </person>
    <person id="ped178" depart="355.98" type="ped_pedestrian">
        <personTrip from="845894786#3" to="1265321921#0" modes="public"/>
    </person>
    <person id="ped179" depart="357.98" type="ped_pedestrian">
        <personTrip from="-34149627#1" to="135318911#1" modes="public"/>
    </person>
    <person id="ped180" depart="359.98" type="ped_pedestrian">
        <personTrip from="502202665" to="1280691330" modes="public"/>
    </person>
    <person id="ped181" depart="361.98" type="ped_pedestrian">
        <personTrip from="276470769#1" to="135672084#1" modes="public"/>
    </person>
    <person id="ped182" depart="363.98" type="ped_pedestrian">
        <personTrip from="1282212443#0" to="176509600#3" modes="public"/>
    </person>
    <person id="ped183" depart="365.98" type="ped_pedestrian">
        <personTrip from="1263512658#0" to="492659914#2" modes="public"/>
    </person>
    <person id="ped184" depart="367.98" type="ped_pedestrian">
        <personTrip from="-107701943#1" to="815117775#1" modes="public"/>
    </person>
    <person id="ped185" depart="369.98" type="ped_pedestrian">
        <personTrip from="152348500#1" to="494457232#2" modes="public"/>
    </person>
    <person id="ped186" depart="371.98" type="ped_pedestrian">
        <personTrip from="506500941#0" to="368614879#0" modes="public"/>
    </person>
    <person id="ped187" depart="373.98" type="ped_pedestrian">
        <personTrip from="1282212382#6" to="-135663875#0" modes="public"/>
    </person>
    <person id="ped188" depart="375.98" type="ped_pedestrian">
        <personTrip from="358171129#5" to="1280691431#1" modes="public"/>
    </person>
    <person id="ped189" depart="377.98" type="ped_pedestrian">
        <personTrip from="1280691330" to="560317292#0" modes="public"/>
    </person>
    <person id="ped190" depart="379.98" type="ped_pedestrian">
        <personTrip from="494457232#3" to="1280691229#2" modes="public"/>
    </person>
    <person id="ped191" depart="381.98" type="ped_pedestrian">
        <personTrip from="1280691250" to="131114442#0" modes="public"/>
    </person>
    <person id="ped192" depart="383.98" type="ped_pedestrian">
        <personTrip from="131114437#0" to="1280691216#0" modes="public"/>
    </person>
    <person id="ped193" depart="385.98" type="ped_pedestrian">
        <personTrip from="-38628967#2" to="131476953" modes="public"/>
    </person>
    <person id="ped194" depart="387.98" type="ped_pedestrian">
        <personTrip from="826015633#2" to="39010319#4" modes="public"/>
    </person>
    <person id="ped195" depart="389.98" type="ped_pedestrian">
        <personTrip from="789117554#1" to="291177224" modes="public"/>
    </person>
    <person id="ped196" depart="391.98" type="ped_pedestrian">
        <personTrip from="1280691230#1" to="157721984#0" modes="public"/>
    </person>
    <person id="ped197" depart="393.98" type="ped_pedestrian">
        <personTrip from="-107701798#0" to="1280691173" modes="public"/>
    </person>
    <person id="ped198" depart="395.98" type="ped_pedestrian">
        <personTrip from="135196403#1" to="176509608" modes="public"/>
    </person>
    <person id="ped199" depart="397.98" type="ped_pedestrian">
        <personTrip from="353955706#0" to="135641874#3" modes="public"/>
    </person>