<?xml version="1.0" encoding="UTF-8"?>

<routes xmlns:xsi="http://www.w3.org/2001/XMLSchema-instance" xsi:noNamespaceSchemaLocation="http://sumo.dlr.de/xsd/routes_file.xsd">
    <vType id="ped_pedestrian" vClass="pedestrian"/>
    <person id="ped0" type="ped_pedestrian" depart="0.00">
        <walk edges="34149696#1 291177220 -182760586 291177224 157721967#0 1312432763#2 436576549#0 436576549#1 1280691379#0 1280691379#1 507751989 791113509#1 152280561 118248809#0 118248809#1 135670542#0 135670542#1 538053207#0 538053207#1 538053207#2 791160569#1 127003504#0 127003544#0 127003544#1 127003544#2 1183622097 -127003519#0 -127003519#1"/>
    </person>
    <person id="ped1" type="ped_pedestrian" depart="2.00">
        <walk edges="127003506 694100501#0 135662472#0 -34633995#2 135641884 411775060 1126924947 34634081#0 34634081#1 34634081#2 1126924948#0 135448695#0 135448695#2 -135257660#2 135258442 -135641870 -910534361#0 -910534361#1 -538053209 135670544 127003504#1 127003544#0 1280691220 1280691189 1280691190#0 1280691193 1208811335 1208811336#0 1208811336#1 1208811336#2"/>
    </person>
    <person id="ped2" type="ped_pedestrian" depart="4.00">
        <walk edges="506392661#0 506392661#1 506392661#2 506392661#3 145634791#15 145634791#16 145634791#17 506423028 176509606#1 144462184#1 538984332 538984333 -38628967#2 1315408667#1 1315408666#1 493286528#3 507407944#0 1282212441#2 1282212434 1282212347 504776816#2 504776814#1 504776814#2 504776818#1 504776812#0 135441161#2 1282212277 538590274#1 55805248#5 -55805248#4 -55805248#3 -55805248#2 -55805248#1 -55814559#1 -55814559#0 -55814560#2 -55814560#1 -55814560#0 243899306#0 39010319#4 243707670#1 39010319#1"/>
    </person>
    <person id="ped3" type="ped_pedestrian" depart="6.00">
        <walk edges="724164224#4 724164224#3 724164224#2 724164224#1 1280691177#0 1280691176 135665043 694040986 1208811336#2 1208811337#2 541858228 694040968#1 231909294 694040969 135441163#0 135441163#1 135441163#2 135441163#3 34262482 694040971#0 694040971#1 33654363#0 33654363#1 33654363#2 33654363#3 33654363#4 1282212274#1 1282212272#1 538590274#1 1282212277 1282212276#1 1282212278 1282212435 542327848#0 358171129#4 358171129#3 358171129#2 358171129#1 358171129#0 131114441#1 131114441#2 1282212287 172547674#1 172547674#0 -541689243 -172547684 -172547682"/>
    </person>
    <person id="ped4" type="ped_pedestrian" depart="8.00">
        <walk edges="1319017081 -494457224#0 -494457224#1 -176451390 127003529#1 -538194726#1 135641868 42772213 135641862 694100500#3 694100500#2 694100500#1 -1282212260"/>
    </person>
    <person id="ped5" type="ped_pedestrian" depart="10.00">
        <walk edges="1182526121 1182526118#0 240517985#0 240517986#0 368618383 368614879#2 368614879#1 368614879#0 368618385 329064669#1 131114466#3 131114466#2 131114466#1 54754789#15 54754789#14 54754789#13 54754789#12 54754789#11 54754789#10 54754789#9 54754789#8 54754789#7 54754789#6 54754789#5 54754789#4 54754789#3 54754789#2 54754789#1 54754789#0 1282212383#1 1282212383#0 1282212384#1 504776816#0 504776812#2 504776812#1 504776812#0 135441161#2 1282212277 538590274#1 55805248#5 -55805248#4 -55805248#3 -55805248#2 -55805248#1 -55814559#1 -55814559#0 -55814560#2 -55814560#1 -55814560#0 243899306#0 243899306#1 243899306#2 -239129036#1" busStop="-392954393"/> <!-- R. Caçadores 10 - Misericórdia -->
        <walk edges="135440098#0 135665040#1 131114459#2 131114459#3 131114459#4 131114459#5 131114459#6 541858225 131114448 1257577546 135665041#1 135665493#1 135665042"/>
    </person>
    <person id="ped6" type="ped_pedestrian" depart="12.00">
        <walk edges="-127003526#1 -127003526#0 135662472#0 694100501#0 127003506 538194726#0 127003529#1 -176451390 -494457224#1 -494457224#0 -493286526 -556303397#1 -556303397#0 -556492118 -493286527#1 -493286527#0 785972280#7 1299122927 1082480235#2"/>
    </person>
    <person id="ped7" type="ped_pedestrian" depart="14.00">
        <walk edges="353879731#2 353879727 541689219 541716008 -55808454#0 -55808454#1 -55808454#2 -55814560#0 -55814560#1 -55814560#2 -55814559#0 -55814559#1 -55805248#1 -55805248#2 -55805248#3 -55805248#4 -55805248#6 -55806518#2 -55806518#3 -694100500#0 -694100500#1 -694100500#2 694100500#3 135641862 42772213 135641868 -538194726#1 127003529#1 -176451390 960101270#0 157719265#0 157719265#1"/>
    </person>
    <person id="ped8" type="ped_pedestrian" depart="16.00">
        <walk edges="1187256682#1 -1187256682#0 34149770#1 1182525582 240517985#0 240517986#0 240517986#1"/>
    </person>
    <person id="ped9" type="ped_pedestrian" depart="18.00">
        <walk edges="542301098#0 276470769#2 276470769#1 276470769#0 135440097#0 542327856 135440094#0 135440094#1 131114437#3 131114437#4 131114437#5 135440086" busStop="-392954393"/> <!-- R. Caçadores 10 - Misericórdia -->
        <ride busStop="5368271759" lines="L9:0" intended="pt_bus_L9:0.0" depart="473.00"/>
        <walk edges="34262530 -127003525 -694100498 415255553 411775061#4 411775061#3 411775061#2 411775061#1 -411775061#0 34633995#1 34633995#2 135662472#0 694100501#0 127003506 538194726#0 -42772214#1 -846798136#0 -846798136#1 -846798136#2 -111720089#0 -111720239 239129579#1 251663697 251663698 111760343#1 111760343#0 111757932 111756980#1 -111757790#1"/>
    </person>
    <person id="ped11" type="ped_pedestrian" depart="22.00">
        <walk edges="1282212276#1 1282212277 538590274#1 55805248#5 -55805248#4 -55805248#3 -55805248#2 -55805248#1 -55814559#1 -55814559#0 -55814560#2 -55814560#1 -55814560#0 243899306#0 39010319#4 243707670#1 39010319#1 1265321922 400178754 -541716009"/>
    </person>
    <person id="ped12" type="ped_pedestrian" depart="24.00">
        <walk edges="837681461 837681459#2 837681459#1 837681469#1 837681469#0 265524932 34149627#1 400180772 502202658 502202667 800153234 800153233 152278358#1 127003520 1280691251 152276004 1280691312#1 1280691312#0 415659326#2 686659391#1 686659391#0 135255191#3 146573376 979527732#0 979527732#1 135665495#1 1280691177#1 1280691176 135665043 694040986 1208811336#2 1208811337#2 541858228 694040968#1 231909294 694040969 135441163#0 135441163#1 135441163#2 135441163#3 34262482 694040971#0 694040971#1 33654363#0 33654363#1 33654363#2 33654363#3 33654363#4 1282212274#1 1282212272#1 538590274#1 1282212277 -55805247#1 1282212266"/>
    </person>
    <person id="ped13" type="ped_pedestrian" depart="26.00">
        <walk edges="-217893595#1 -217893595#0 556466050#2 556466050#1 556466050#0 54754790#1 54754790#0 145634786#4 145634786#3 145634786#2 145634786#1 145634786#0 131114467#1 144462184#1 538984332 538984333 -38628967#2 1315408667#1 1315408666#1 493286528#3 507407944#0 1282212441#2 1282212434 1282212347 1282212433#1 1282212433#2 1282212433#3 1282212438 702242388#0 135441167#0 135441167#1 176509605#0 176509605#1 176509605#2 176509605#3 176509605#4 694100496 694100497#0 694100497#1 135441163#3 135441163#2 135441163#1 135441163#0 694040969 231909294 694040968#1 541858228 1208811337#2 1208811336#2 1208811336#1 1208811336#0 157725236#0 1226992578#1 299043086#1 135255197 -243993887"/>
    </person>
    <person id="ped14" type="ped_pedestrian" depart="28.00">
        <walk edges="559879336#2 353906986#5 353906986#6 353906986#7 353906986#8 559879332#1 837681470#1 837681469#1 837681469#0 265524932 34149627#1 400180772 502202658 502202667 800153234 800153233 152278358#1 127003520 1280691251 152276004 1280691312#1 1280691312#0 415659326#2 686659391#1 686659391#0 135255191#3 146573376 979527732#0 979527732#1 135665495#1 1280691177#1 1280691176 135665043 694040986 1208811336#2 1208811337#2 541858228 694040968#1 231909294 694040969 135441163#0 135441163#1 135441163#2 135441163#3 34262482 694040971#0 694040971#1 33654363#0 33654363#1 33654363#2 33654363#3 33654363#4 1282212274#1 1282212272#1 538590274#1 1282212277 1282212276#1 1282212278 1282212435 542327848#0 358171129#4 358171129#3 358171129#2 358171129#1 358171129#0 131114441#1 131114441#2 1282212289#2 1282212289#1 1282212286 172547679 541689220#2 541689220#1 541689220#0 172547668 268931418 268931385#1"/>
    </person>
    <person id="ped15" type="ped_pedestrian" depart="30.00">
        <walk edges="542157797 135440098#2 135440098#1 135440098#0" busStop="-392954393"/> <!-- R. Caçadores 10 - Misericórdia -->
        <walk edges="-239129036#1 243899306#2 243899306#1 243899306#0 -55814560#0 -55814560#1 -55814560#2 -55814559#0 -55814559#1 -55805248#1 -55805248#2 -55805248#3 -55805248#4 55805248#5 538590274#1 1282212277 135441161#2 504776812#0"/>
    </person>
    <person id="ped16" type="ped_pedestrian" depart="32.00">
        <walk edges="152276006#1 152276002 152278371#0 152278371#1 152278371#2 152278358#3 152278358#4 152278358#5 134404753#0 134404753#1 134404753#2 134404753#3 1312446721 939109630 1312432766 541332667#0 541332667#1 541332667#2 939109607 539303693#1 939109602#1 939109602#2"/>
    </person>
    <person id="ped17" type="ped_pedestrian" depart="34.00">
        <walk edges="1282212430 1282212434 1282212347 1282212433#1 1282212433#2 1282212433#3 1282212438 702242388#0 702242388#1 1282212271#2 1282212271#1 1282212270 -135448704#0 -1082914663 415255553 -694100498 -541678027 157721992"/>
    </person>
    <person id="ped18" type="ped_pedestrian" depart="36.00">
        <walk edges="556492121 686659353 686659365#1 850328478#1 1186574168#0 1186574168#1 34262475#0 135210565 541729721#1 135430896#1 30008037#0 30008037#1 30008037#2"/>
    </person>
    <person id="ped19" type="ped_pedestrian" depart="38.00">
        <walk edges="686659357 686659364#1 686659364#0 135165691#5 135165691#4 135165691#3 135165691#2 135165691#1 1280691180 694040984#2 694040984#1 694040984#0 1280691171#1 135665043 694040986 1208811336#2 1208811337#2 541858228 694040968#1 231909294 694040969 135441163#0 135441163#1 135441163#2 135441163#3 694100497#1 694100497#0 694100496 176509605#4 176509605#3 176509605#2 176509605#1 176509605#0 135441167#1 135441167#0 702242388#0 1282212438 1282212433#3 1282212433#2 1282212433#1 1282212347 1282212434 1282212441#2 507407944#0 493286528#3 1315408666#1 1315408667#1 -38628967#2 538984333 538984332 144462184#1 131114467#1 145634786#0 145634786#1 145634786#2 145634786#3 145634786#4 -1122735505#2 528662244 176509601"/>
    </person>
    <person id="ped20" type="ped_pedestrian" depart="40.00">
        <walk edges="442754982#0 135662476#2 290560651#2 -135662460#5 -135662460#4 702242396 504776818#2 504776818#1 504776812#0 135441161#2 1282212277 538590274#1 55805248#5 -55805248#4 -55805248#3 -55805248#2 -55805248#1 -55814559#1 -55814559#0 -55814560#2 -55814560#1 -55814560#0 243899306#0 39010319#4 243707670#1 39010319#1 131114437#4 131114437#3 135440094#1 135440094#0 542327856 135440097#0 135440097#2 276867727#1 291174715 -135435668#0 -135435668#1"/>
    </person>
    <person id="ped21" type="ped_pedestrian" depart="42.00">
        <walk edges="1209354582#2 1261975608" busStop="1799473677"/> <!-- Av. Dr. L. Peixinho - Capitania -->
        <walk edges="694040972#1 694040972#2 1259714848#1 -107701798#0 135665493#0 135665493#1 135665493#2 1208599111#1 1280691175#0 1280691175#1 694040984#0 724164224#0 724164224#1 1280691178"/>
    </person>
    <person id="ped22" type="ped_pedestrian" depart="44.00">
        <walk edges="-157721967#1 -157721967#0 1312432763#2 436576549#0 436576549#1 1280691379#0 1280691379#1 507751989 791113509#1 152280561 118248809#0 118248809#1 135670542#0 135670542#1 538053207#0 1280691229#1 1280691229#0 910534361#0 -135641870 135258442 -135257660#2 -135448695#2 -135448695#1 -1126924948#2 135641874#2 1222182069"/>
    </person>
    <person id="ped23" type="ped_pedestrian" depart="46.00">
        <walk edges="-255784627 -34633524#1 -34633524#2 -694061062#0 -694061062#1 -844878488 1078551827" busStop="7882258878"/>
        <ride busStop="5368271759" lines="L10:0" intended="pt_bus_L10:0.0" depart="490.00"/>
        <walk edges="34262530 243526018#0 243526018#3 127003555 -127003472#2 1223767427 34634081#1 34634081#0 127003540#2"/>
    </person>
    <person id="ped24" type="ped_pedestrian" depart="48.00">
        <walk edges="33654363#4 1282212274#1 1282212272#1 538590274#1 1282212277 135441161#2 504776812#0 504776812#1 504776812#2 504776816#0 1282212384#1 1282212383#0 1282212383#1"/>
    </person>
    <person id="ped25" type="ped_pedestrian" depart="50.00">
        <walk edges="1282212413 1282212443#0 507407939#1 1315408667#1 1315408666#1 -493286528#2 -131114434#0 -131114434#1 -131114434#2 -131114434#3 -131114434#4 -131114434#6 -959712387 959712387 -131114434#7 -131114434#8 -411818822 -411775913 135667755#0 -493286526 494457232#1 -135660343#1 -1230883259#0 -1230883259#1 -1230883259#2 124425271 -124425269 -846798136#2 -111720089#0 -111720239 239129579#1 251663697 251663698 111760343#1"/>
    </person>
    <person id="ped26" type="ped_pedestrian" depart="52.00">
        <walk edges="1265321927 845894786#3 845894786#4 291174715 276867727#1 135440097#2 135440097#0 542327856 135440094#0 135440094#1 131114437#3 131114437#4 131114437#5 135440086" busStop="-392954393"/> <!-- R. Caçadores 10 - Misericórdia -->
        <ride busStop="5368271759" lines="L9:0" intended="pt_bus_L9:0.0" depart="473.00"/>
        <walk edges="34262530 -135448688#0 825387237 507544659#14 825387234#0 825387234#1"/>
    </person>
    <person id="ped28" type="ped_pedestrian" depart="56.00">
        <walk edges="-560761988 -135668513 135668513 -34730711#3 -34730711#2 -34730711#1 -34730711#0 1186574168#1 34262475#0 135210565 541729721#1 135430896#1 146634192#0 1280691174 1280691175#1 1280691171#1 1280691176 1280691177#1 135665495#1 979527732#1 979527732#0 146573376 135255191#3 686659391#0 686659391#1 415659326#2 1280691312#0 1280691312#1 152276004 1280691251 127003520 152278358#1 800153233 800153234 502202667 502202666"/>
    </person>
    <person id="ped29" type="ped_pedestrian" depart="58.00">
        <walk edges="-55806518#2 1282212437#3 1282212437#2 1282212437#1 1282212437#0 1282212438 1282212433#3 1282212433#2"/>
    </person>
    <person id="ped30" type="ped_pedestrian" depart="60.00">
        <walk edges="962929631#1 962929631#0 962929634#1 962929634#0 962929633#1 445119971#0 442755513 408048948 290560652#1 157717532 408048952 -702242398#3 702242397 290560795#1 157717529 -131114434#4 -131114434#3 -131114434#2 -131114434#1 -131114434#0 -493286528#1 507407941#2 493286524#0 -144462184#1 131114467#1 131114467#0 54754789#17 54754789#16 131114466#1 131114466#2 131114466#3 329064669#1 368618385 368614879#0 368614879#1 368614879#2 368618383 240517986#0 240517985#0 1182525582 34149770#1 34149770#0"/>
    </person>
    <person id="ped31" type="ped_pedestrian" depart="62.00">
        <walk edges="157725250#0 135255193 1208811337#2 541858228 694040968#1 231909294 694040969 135441163#0 135441163#1 135441163#2 135441163#3 694100497#1 694100497#0 694100496 176509605#4 176509605#3 176509605#2 176509605#1 176509605#0 135441167#1 135441167#0 702242388#0 1282212438 1282212433#3 1282212433#2 1282212433#1 1282212347 1282212434 1282212441#2 507407944#0 493286528#3 1315408666#1 1315408667#1 -38628967#2 538984333 538984332 144462184#1 176509606#1 506423028 145634791#17 145634791#16 145634791#15 145634791#14 145634791#13 411819525"/>
    </person>
    <person id="ped32" type="ped_pedestrian" depart="64.00">
        <walk edges="559879308 559879310 837681427#1 353906986#0 353906986#1 353906986#2 353906986#3 353906986#4 353906986#5 353906986#6 353906986#7 353906986#8 559879332#1 837681470#1 837681469#1 837681469#0 265524932 34149627#1 400180772 502202658 502202667 800153234 800153233 152278358#1 152278358#2 152278358#3 127003542#0 127003542#1 791113509#0 791113509#1 152280561 118248809#0 118248809#1 135670542#0 135670542#1 538053207#0 1280691229#1 1280691229#0 910534361#0 -135641870 135258442 135641892 -538053197 -135448702 127003479#2 127003479#1 127003479#0 -959158283 -135641886 1312432761 135641885#0 135641885#1 135641888 538194731 846798136#0 -135643613 419098412 122054852#0 157719263 157719256 538510049#0 538510064#0 538510064#1"/>
    </person>
    <person id="ped33" type="ped_pedestrian" depart="66.00">
        <walk edges="122054851#2 122054852#3 122054852#2 122054852#1 122054852#0 960101270#1 960101270#0 -176451390 127003529#1 -538194726#1 135641868 42772213 135641862 135641861 694100502 135641880 34633995#2 34633995#1 -411775061#0 411775061#1 -528542004 -528542007 135641873#0 -127003472#0 -127003472#1 -127003472#2 127003555 -243526018#4 507544668 507544659#3 507544659#2 507544659#1 507544659#14 825387237 135448688#2 -131114432#1"/>
    </person>
    <person id="ped34" type="ped_pedestrian" depart="68.00">
        <walk edges="1280691340#1 507751984#1 134404753#1 134404753#0 152278358#5 152278358#4 152278358#3 152278371#2 152278371#1 152278371#0 152276002 152276006#1 1280691312#0 415659326#2 686659391#1 686659391#0 135255191#3 146573376 979527732#0 979527732#1 135665495#1 1280691177#1 1280691176 1280691171#1 1280691175#1 1280691175#0 1208599111#1 135665493#2 135665493#1 135665493#0 -107701798#0 1259714848#1 694040972#2 694040972#1" busStop="1799473677"/> <!-- Av. Dr. L. Peixinho - Capitania -->
        <walk edges="-496434096 496434096 844878488 845894784#2 561485257 561485254#3 845894786#0 845894786#1 1265321930#0"/>
    </person>
    <person id="ped35" type="ped_pedestrian" depart="70.00">
        <walk edges="1122735505#2 1122735505#1 1122735505#0 789117555#5 789117555#4 789117555#3 789117555#2 -789117555#1 -797673281 1039561970 785972280#4 785972280#5 785972280#6 493286527#0 493286527#1 556492118 -556303397#0 -556303397#1 -493286526 -494457224#0 -494457224#1 -176451390 127003529#1 538194726#0 127003506 694100501#0 135662472#0 -34633995#2 135641884 411775060 1126924947 34634081#0 34634081#1 34634081#2 1126924948#0 135448695#0 135448695#2 -135257660#2 135258442 -135641870 910534361#0 1280691229#0 1280691229#1 538053207#0 135670542#1 135670542#0 118248809#1 118248809#0 152280561 791113509#1 791113509#0 127003542#1 127003542#0 152278358#3 152278358#2 152278358#1 800153233 800153234 502202667 502202658 400180772 34149627#1 34149627#0 959158279 826015636#3"/>
    </person>
    <person id="ped37" type="ped_pedestrian" depart="74.00">
        <walk edges="358156366#0 358156366#1 358156366#2 358156366#3 358156366#4 358156366#5 358156366#6 -358156377#1 -694100500#1 -694100500#0 -55806518#3 -55806518#2 -55805248#6 -55805248#4 -55805248#3 -55805248#2 -55805248#1 -55814559#1 -55814559#0 -55814560#2 -55814560#1 -55814560#0 243899306#0 39010319#4 243707670#1 39010319#1 131114437#4 131114437#3 135440094#1 135440094#0 542327856 1278312354 1284472210 1284472211 135422367#0 135422367#1 1284472214#4 1284472214#3"/>
    </person>
    <person id="ped38" type="ped_pedestrian" depart="76.00">
        <walk edges="791113512#0 538058564#2 538058564#1 135670542#1 538053207#0 1280691229#1 1280691229#0 910534361#0 -135641870 135258442 -135257660#2 135448695#2"/>
    </person>
    <person id="ped39" type="ped_pedestrian" depart="78.00">
        <walk edges="1265321919#1 1265321915#0 243707670#4 39010319#1 131114437#4 131114437#3 135440094#1 135440094#0 542327856 135440097#0 135440097#2 276867727#1 291174715 845894786#4 845894786#3 845894786#2 845894786#1 845894786#0 561485254#3 561485257 845894784#2 -694061062#1 788320615#1 1261975609#0 788245329#2 788245329#1 788245327#2 1260767064#1"/>
    </person>
    <person id="ped40" type="ped_pedestrian" depart="80.00">
        <walk edges="160359811#1 160359811#2 131114459#3 131114459#4 131114459#5 131114459#6 541858225 131114448 1257577546 135665041#1 135665493#0 107701798#0 247189148#1 247189148#0 1259714849#1 1259714849#0 1259714850#2 1259714850#1 1259714850#0 1261975613#0 1263512688#0 1263512688#1 1263512691#1"/>
    </person>
    <person id="ped41" type="ped_pedestrian" depart="82.00">
        <walk edges="238371020#1 694040964 291174714#0 694040972#0 694040972#1" busStop="11204909039"/> <!-- Av. Dr. L. Peixinho - Capitania -->
        <walk edges="1261975608 1261975609#1 788245329#2 788245329#1 788245329#0 1260767065#0 788245333#0"/>
    </person>
    <person id="ped42" type="ped_pedestrian" depart="84.00">
        <walk edges="131114434#0 493286528#1 493286528#0 1186574116#1 1186574116#0"/>
    </person>
    <person id="ped43" type="ped_pedestrian" depart="86.00">
        <walk edges="964357194#3 964357192#2 964357193#0 964357193#1 1312432761 -135641886 -959158283 127003479#0 127003479#1 127003479#2 -135448702 -538053197 135641892 135258442 -135641870 910534361#0 1280691229#0 1280691229#1 538053207#0 135670542#1 135670542#0"/>
    </person>
    <person id="ped44" type="ped_pedestrian" depart="88.00">
        <walk edges="-176509606#1 -144462184#1 493286524#0 507407941#2 -493286528#1 493286528#2 493286528#3 507407944#0 1282212441#2 1282212434 1282212347 504776816#2 504776814#1 504776814#2 504776818#1 504776812#0 135441161#2 1282212277 538590274#1 55805248#5 -55805248#4 -55805248#3 -55805248#2 -55805248#1 -55814559#1 -55814559#0 -55814560#2 -55814560#1 -55814560#0 243899306#0 39010319#4 243707670#1 39010319#1 131114437#4 131114437#3 135440094#1 135440094#0 542327856 135440097#0 135440097#2 276867727#1 291174715 -135435668#0 -135435668#1 -135435668#2 -135435671#0 -135435671#1 -135435671#2"/>
    </person>
    <person id="ped45" type="ped_pedestrian" depart="90.00">
        <walk edges="-34149770#0 -34149770#1 1182525582 240517985#0 240517986#0 368618383 368614879#2 368614879#1 368614879#0 368618385 329064669#1 131114466#3 131114466#2 329064661#6 329064661#5 329064661#4 329064661#3 329064661#2"/>
    </person>
    <person id="ped47" type="ped_pedestrian" depart="94.00">
        <walk edges="-135660343#1 538510049#0 157719256 157719263 122054852#0 960101270#1 960101270#0 -176451390 127003529#1 -538194726#1 135641868 42772213 135641862 694100500#3 694100500#2 694100500#1 1282212260 -1282212261 55806518#3 1282212437#3 1282212437#2 1282212437#1"/>
    </person>
    <person id="ped48" type="ped_pedestrian" depart="96.00">
        <walk edges="964357193#0 964357193#1 1312432761 -135641886 -959158283 127003479#0 127003479#1 127003479#2 -135448702 -538053197 135641892 135258442 -135641870 -910534361#0 -910534361#1 -538053209 135670544 127003504#1 127003544#0 1280691220 1280691189 1280691190#0 1280691193 1208811335 157725236#0 157725236#1 299043084#1 135255194 183765519 146573383#4 146573383#3 146573383#2 146573383#1"/>
    </person>
    <person id="ped51" type="ped_pedestrian" depart="102.00">
        <walk edges="411775060 1126924947 34634081#0 34634081#1 34634081#2 1126924948#0 135448695#0 135448695#2 -135257660#2 135258442 -135641870 910534361#0 1280691229#0 1280691229#1 538053207#1 538053207#2 791160569#1 -794561702#2 -794561702#1 686659391#1 415659326#2 1280691312#0 152276006#1 152276002 152278371#0"/>
    </person>
    <person id="ped53" type="ped_pedestrian" depart="106.00">
        <walk edges="-34633578#0 1263512660 1209354577#2 1209354577#1 1209354577#0 247189148#0 1259714849#1 1263512655#1 135430896#1 146634192#0 1280691174 1280691175#1 1280691171#1 135665043 694040986 1208811336#1 1208811336#0 1208811335 1280691193 1280691190#0 1280691189 1280691220 127003544#0 127003504#0 791160569#1 538053207#2 538053207#1 538053207#0 135670542#1 538058564#1 538058564#2 791113512#0 269505416#0 135318911#1"/>
    </person>
    <person id="ped54" type="ped_pedestrian" depart="108.00">
        <walk edges="135440104#0 -135440104#0 135440071#1 135440071#0 34262505 34262482 135441163#3 135441163#2 135441163#1 135441163#0 694040969 231909294 694040968#1 541858228 1208811337#2 1208811336#2 694040986 135665043 1280691176 1280691177#1 135665495#1 979527732#1 979527732#0 146573376 135255191#3 686659391#0 686659391#1 415659326#2 1280691312#0 1280691312#1 152276004 1280691251 127003520 152278358#1 800153233 800153234 502202667 502202658 400180772 34149627#1 265524932 837681469#0 837681469#1 837681470#1 559879332#1 353906986#8 353906986#7 353906986#6 353906986#5 353906986#4 353906986#3 559879334#0 837681451"/>
    </person>
    <person id="ped56" type="ped_pedestrian" depart="112.00">
        <walk edges="135663881#2 135662468#0 1282212437#3 55806518#3 -694100499#1"/>
    </person>
    <person id="ped57" type="ped_pedestrian" depart="114.00">
        <walk edges="791113508#1 1280691197 1280691229#1 538053207#1 538053207#2 791160569#1 127003504#0 127003544#0 1280691220 1280691189 1280691190#0 1280691193 1208811335 1208811336#0 1208811336#1 694040986 135665043 1280691171#1 1280691175#1 1280691175#0 1208599111#1 135665493#2 135665493#1 135665493#0 -107701798#0 1259714848#1 694040972#2"/>
    </person>
    <person id="ped58" type="ped_pedestrian" depart="115.99">
        <walk edges="1280691222 1280691220 127003544#0 127003504#0 791160569#1 538053207#2 538053207#1 538053207#0 135670542#1 135670542#0 118248809#1 118248809#0 152280561 791113509#1 507751989 1280691379#1 1280691379#0 436576549#1 436576549#0 1312432763#2 157721967#0 291177224 182760586 291177220 791160565 34149656"/>
    </person>
    <person id="ped59" type="ped_pedestrian" depart="117.99">
        <walk edges="276595933#2 276595933#1 845894786#1 845894786#2 845894786#3 845894786#4 291174715 276867727#1 135440097#2 135440097#0 542327856 135440094#0 135440094#1 131114437#3 131114437#4 131114437#5 135440086" busStop="-392954393"/> <!-- R. Caçadores 10 - Misericórdia -->
        <ride busStop="5368271759" lines="L10:0" intended="pt_bus_L10:0.0" depart="571.00"/>
        <walk edges="34262530 694100496 176509605#4 176509605#3 176509605#2 -135448700 -541678034"/>
    </person>
    <person id="ped60" type="ped_pedestrian" depart="119.99">
        <walk edges="507751989 791113509#1 152280561 118248809#0 118248809#1 135670542#0 135670542#1 538053207#0 1280691229#1 1280691229#0 910534361#0 -135641870 135258442 135641892 -538053197 -135448702 127003479#2 127003479#1 127003479#0 -959158283 -135641886 1312432761 135641885#0 135641885#1 135641888 538194731 846798136#0 -135643613 419098412 122054852#0 157719263 157719256 538510049#0 538510064#0 538510064#1 960101267#1 157711184#0 157711184#1"/>
    </person>
    <person id="ped61" type="ped_pedestrian" depart="121.99">
        <walk edges="538590275#0 1282212274#1 33654363#4 33654363#3 33654363#2 33654363#1 33654363#0 694040971#1 694040971#0 34262482 135441163#3 135441163#2 135441163#1 135441163#0 694040969 231909294 694040968#1 541858228 1208811337#2 1208811336#2 694040986 135665043 1280691176 1280691177#0 724164224#1 724164224#2 724164224#3 146573390 146573383#3 146573383#4"/>
    </person>
    <person id="ped63" type="ped_pedestrian" depart="125.99">
        <walk edges="-127003472#1 -127003472#2 127003555 -243526018#4 -243526018#1 -34262530 694100497#0 42772834#0 42772834#1 42772834#2 42772834#3 42772834#4 526801778 507548448#0 818847868 818847859 818847860"/>
    </person>
    <person id="ped64" type="ped_pedestrian" depart="127.99">
        <walk edges="694100498 541678030 135448700 38697262 243899307#4 243899307#3 55819460#0 420808085 420808080#0 420808080#1 420808080#2 55805248#3"/>
    </person>
    <person id="ped65" type="ped_pedestrian" depart="129.99">
        <walk edges="1280691247#1 1280691247#0 791113513#3 791113509#0 791113509#1 152280561 118248809#0 118248809#1 135670542#0 135670542#1 538053207#0 1280691229#1 1280691229#0 910534361#0 -135641870 135258442 135641892 -538053197 -135448702 127003479#2 127003479#1 127003479#0 -959158283 -135641886 1312432761 135641885#0 -135641885#0"/>
    </person>
    <person id="ped66" type="ped_pedestrian" depart="131.99">
        <walk edges="694061062#1 788320615#1 1261975609#0 788245329#2 788245329#1 788245327#2 1260767064#1 1260767066#0 561485246#1 561485243 247189228 694040972#2 1259714848#1 -107701798#0 135665493#0 135665493#1 135665493#2 1208599111#1 1280691175#0 1280691175#1 1280691171#1 1280691176 1280691177#1 135665495#1 979527732#1 979527732#0 146573376 135255191#3 686659391#0 686659391#1 415659326#2 1280691312#0 1280691312#1 152276004 1280691251 127003520 152278358#1 800153233 800153234 502202667 502202658 400180772 34149627#1 265524932 837681469#0 837681469#1 837681470#1 837681429"/>
    </person>
    <person id="ped67" type="ped_pedestrian" depart="133.99">
        <walk edges="-172547674#1 1282212287 131114441#2 131114441#1 358171129#0 358171129#1 358171129#2 358171129#3 358171129#4 542327848#0 1282212435 1282212278 1282212276#1 1282212439 1282212438 1282212437#0 1282212437#1 1282212437#2 135662468#0"/>
    </person>
    <person id="ped68" type="ped_pedestrian" depart="135.99">
        <walk edges="-135663874#2 -135663874#3 135663872#0 431892552 542327848#2 542327848#1 542327848#0 1282212435 1282212278 1282212276#1 1282212277 538590274#1 1282212272#1 1282212274#1 33654363#4 33654363#3 33654363#2 33654363#1 33654363#0 694040971#1 694040971#0 34262482 135441163#3 135441163#2 135441163#1 135441163#0 694040969 507548451"/>
    </person>
    <person id="ped69" type="ped_pedestrian" depart="137.99">
        <walk edges="528662243 145634791#1 506423038 145634791#16 145634791#15 145634791#14 506659716 506659715 144210562#3 144210562#2 144210562#1 789117554#2 789117555#0 -797673281 1039561970 785972280#4 785972280#5 785972280#6 493286527#0 493286527#1 556492118 556303397#0 556303397#1 493286526 494457224#0 494457224#1 176451390 135667682#0 42772214#0 538194731 135641888 135641885#1 135641885#0 1312432761 -135641886 -959158283 127003479#0 127003479#1 127003479#2 -135448702 -39010321"/>
    </person>
    <person id="ped71" type="ped_pedestrian" depart="141.99">
        <walk edges="1265321919#1 1265321915#0 243707670#4 39010319#1 131114437#5 135440086" busStop="5366100010"/> <!-- R. Caçadores 10 - Misericórdia -->
        <walk edges="135440098#0 135665040#1 131114459#2 131114459#3 131114459#4 131114459#5 131114459#6 541858225 131114448 1257577546 135665041#1 135665493#1 694040982 694040980#2"/>
    </person>
    <person id="ped72" type="ped_pedestrian" depart="143.99">
        <walk edges="1319017086#1 -694100500#2 -135448689 411775061#0 -1126924947 34634081#0 34634081#1 34634081#2 1126924948#0"/>
    </person>