<?xml version="1.0" encoding="UTF-8"?>

<routes xmlns:xsi="http://www.w3.org/2001/XMLSchema-instance" xsi:noNamespaceSchemaLocation="http://sumo.dlr.de/xsd/routes_file.xsd">
    <vType id="veh_passenger" vClass="passenger"/>
    <trip id="veh0" type="veh_passenger" depart="0.00" departLane="best" from="-168731194#1" to="-127003493"/>
    <trip id="veh1" type="veh_passenger" depart="1.76" departLane="best" from="-794561702#0" to="-539599343#0"/>
    <trip id="veh2" type="veh_passenger" depart="3.53" departLane="best" from="34262489#1" to="269505416#0"/>
    <trip id="veh3" type="veh_passenger" depart="5.29" departLane="best" from="55805248#4" to="-135643613"/>
    <trip id="veh4" type="veh_passenger" depart="7.05" departLane="best" from="131117149" to="-127003496#0"/>
    <trip id="veh5" type="veh_passenger" depart="8.81" departLane="best" from="-538194728" to="135660335#0"/>
    <trip id="veh6" type="veh_passenger" depart="10.58" departLane="best" from="-127003472#1" to="-411775913"/>
    <trip id="veh7" type="veh_passenger" depart="12.34" departLane="best" from="172547682" to="137614591#1"/>
    <trip id="veh8" type="veh_passenger" depart="14.10" departLane="best" from="-539599342#0" to="157714717"/>
    <trip id="veh9" type="veh_passenger" depart="15.87" departLane="best" from="504776812#1" to="1126924948#0"/>
    <trip id="veh10" type="veh_passenger" depart="17.63" departLane="best" from="502202659#3" to="493897267#1"/>
    <trip id="veh11" type="veh_passenger" depart="19.39" departLane="best" from="122054852#0" to="-176509600#2"/>
    <trip id="veh12" type="veh_passenger" depart="21.16" departLane="best" departSpeed="max" from="815105913#0" to="1265321923"/>
    <trip id="veh13" type="veh_passenger" depart="22.92" departLane="best" from="135663872#2" to="-135667683#0"/>
    <trip id="veh14" type="veh_passenger" depart="24.68" departLane="best" from="538984331" to="157721987#1"/>
    <trip id="veh17" type="veh_passenger" depart="29.97" departLane="best" from="127003506" to="144074713"/>
    <trip id="veh18" type="veh_passenger" depart="31.73" departLane="best" from="538053207#2" to="158029369"/>
    <trip id="veh19" type="veh_passenger" depart="33.50" departLane="best" from="541337243#6" to="152276006#0"/>
    <trip id="veh20" type="veh_passenger" depart="35.26" departLane="best" from="-541689237" to="111720089#2"/>
    <trip id="veh21" type="veh_passenger" depart="37.02" departLane="best" from="-135641892" to="54754790#1"/>
    <trip id="veh22" type="veh_passenger" depart="38.79" departLane="best" from="-137614596#0" to="1082914663"/>
    <trip id="veh23" type="veh_passenger" depart="40.55" departLane="best" departSpeed="max" from="168522910" to="127003555"/>
    <trip id="veh24" type="veh_passenger" depart="42.31" departLane="best" departSpeed="max" from="127003496#0" to="-494457228#1"/>
    <trip id="veh25" type="veh_passenger" depart="44.07" departLane="best" from="-694100500#2" to="789117554#1"/>
    <trip id="veh26" type="veh_passenger" depart="45.84" departLane="best" from="-172547674#2" to="157721993#2"/>
    <trip id="veh28" type="veh_passenger" depart="49.36" departLane="best" from="246180935#3" to="131114434#0"/>
    <trip id="veh29" type="veh_passenger" depart="51.13" departLane="best" from="939109635#0" to="172550491"/>
    <trip id="veh30" type="veh_passenger" depart="52.89" departLane="best" departSpeed="max" from="135668513" to="295388787"/>
    <trip id="veh31" type="veh_passenger" depart="54.65" departLane="best" from="-541715996" to="-127003496#2"/>
    <trip id="veh32" type="veh_passenger" depart="56.41" departLane="best" from="111757790#0" to="-960101270#0"/>
    <trip id="veh33" type="veh_passenger" depart="58.18" departLane="best" from="-496434096" to="791113509#1"/>
    <trip id="veh34" type="veh_passenger" depart="59.94" departLane="best" departSpeed="max" from="542894737" to="1209354580#1"/>
    <trip id="veh35" type="veh_passenger" depart="61.70" departLane="best" departSpeed="max" from="173245223" to="1312446724"/>
    <trip id="veh36" type="veh_passenger" depart="63.47" departLane="best" from="686659356" to="135448689"/>
    <trip id="veh37" type="veh_passenger" depart="65.23" departLane="best" from="694100499#2" to="-686659370"/>
    <trip id="veh38" type="veh_passenger" depart="66.99" departLane="best" from="135672088" to="-846798136#0"/>
    <trip id="veh39" type="veh_passenger" depart="68.76" departLane="best" from="146414486#1" to="560794006"/>
    <trip id="veh40" type="veh_passenger" depart="70.52" departLane="best" from="-1280691440" to="-538053209"/>
    <trip id="veh41" type="veh_passenger" depart="72.28" departLane="best" from="-135660343#1" to="130801248#3"/>
    <trip id="veh42" type="veh_passenger" depart="74.04" departLane="best" departSpeed="max" from="-148818221#1" to="172518594"/>
    <trip id="veh43" type="veh_passenger" depart="75.81" departLane="best" from="494457224#1" to="135422365"/>
    <trip id="veh44" type="veh_passenger" depart="77.57" departLane="best" from="-135412557#0" to="131114434#2"/>
    <trip id="veh45" type="veh_passenger" depart="79.33" departLane="best" departSpeed="max" from="95841133" to="135667684#0"/>
    <trip id="veh46" type="veh_passenger" depart="81.10" departLane="best" from="911051623" to="549206262"/>
    <trip id="veh47" type="veh_passenger" depart="82.86" departLane="best" from="-1126924948#2" to="34633578#0"/>
    <trip id="veh48" type="veh_passenger" depart="84.62" departLane="best" from="239129579#1" to="135674908#2"/>
    <trip id="veh49" type="veh_passenger" depart="86.38" departLane="best" from="-694100500#2" to="172550491"/>
    <trip id="veh50" type="veh_passenger" depart="88.15" departLane="best" departSpeed="max" from="-148818687" to="135430897"/>
    <trip id="veh51" type="veh_passenger" depart="89.91" departLane="best" departSpeed="max" from="135424829" to="815086056"/>
    <trip id="veh52" type="veh_passenger" depart="91.67" departLane="best" departSpeed="max" from="542894737" to="846798136#1"/>
    <trip id="veh53" type="veh_passenger" depart="93.44" departLane="best" from="135641863" to="255512453"/>
    <trip id="veh54" type="veh_passenger" depart="95.20" departLane="best" from="658633126" to="55805248#0"/>
    <trip id="veh55" type="veh_passenger" depart="96.96" departLane="best" from="107701798#1" to="172547691#0"/>
    <trip id="veh56" type="veh_passenger" depart="98.73" departLane="best" from="152278371#0" to="-172557273"/>
    <trip id="veh57" type="veh_passenger" depart="100.49" departLane="best" from="400180772" to="135890454"/>
    <trip id="veh58" type="veh_passenger" depart="102.25" departLane="best" departSpeed="max" from="493286523" to="135667755#0"/>
    <trip id="veh59" type="veh_passenger" depart="104.01" departLane="best" from="-1072590409#1" to="-1230883259#2"/>
    <trip id="veh60" type="veh_passenger" depart="105.78" departLane="best" from="-1230883259#0" to="-694100500#1"/>
    <trip id="veh61" type="veh_passenger" depart="107.54" departLane="best" from="-54754790#1" to="-1312432763#0"/>
    <trip id="veh62" type="veh_passenger" depart="109.30" departLane="best" from="1092110084" to="-134404752#1"/>
    <trip id="veh63" type="veh_passenger" depart="111.07" departLane="best" from="-54754790#0" to="791160568#0"/>
    <trip id="veh64" type="veh_passenger" depart="112.83" departLane="best" from="-135440083" to="493286525#1"/>
    <trip id="veh65" type="veh_passenger" depart="114.59" departLane="best" from="411775061#2" to="-157712726#1"/>
    <trip id="veh66" type="veh_passenger" depart="116.36" departLane="best" from="-135440071#1" to="139239471#1"/>
    <trip id="veh67" type="veh_passenger" depart="118.12" departLane="best" from="1312432761" to="-494457231#1"/>
    <trip id="veh68" type="veh_passenger" depart="119.88" departLane="best" departSpeed="max" from="135663872#0" to="372714706"/>
    <trip id="veh69" type="veh_passenger" depart="121.64" departLane="best" from="-493897271" to="1209354575"/>
    <trip id="veh70" type="veh_passenger" depart="123.41" departLane="best" departSpeed="max" from="95841133" to="176509610"/>
    <trip id="veh71" type="veh_passenger" depart="125.17" departLane="best" from="135165691#5" to="135660363"/>
    <trip id="veh72" type="veh_passenger" depart="126.93" departLane="best" from="-157712726#3" to="-541337243#0"/>
    <trip id="veh73" type="veh_passenger" depart="128.70" departLane="best" from="122054850" to="157714717"/>
    <trip id="veh74" type="veh_passenger" depart="130.46" departLane="best" from="-541716009" to="-538194726#1"/>
    <trip id="veh75" type="veh_passenger" depart="132.22" departLane="best" from="-135448695#1" to="172547669#3"/>
    <trip id="veh76" type="veh_passenger" depart="133.98" departLane="best" from="-541715996" to="605255880"/>
    <trip id="veh77" type="veh_passenger" depart="135.75" departLane="best" from="541332677#3" to="135440071#1"/>
    <trip id="veh78" type="veh_passenger" depart="137.51" departLane="best" from="-556466050#2" to="-246180935#5"/>
    <trip id="veh79" type="veh_passenger" depart="139.27" departLane="best" departSpeed="max" from="-507751987" to="-157716287#0"/>
    <trip id="veh80" type="veh_passenger" depart="141.04" departLane="best" from="694100500#2" to="149160661"/>
    <trip id="veh81" type="veh_passenger" depart="142.80" departLane="best" from="135435674#0" to="497767446"/>
    <trip id="veh82" type="veh_passenger" depart="144.56" departLane="best" from="502202667" to="34633995#1"/>
    <trip id="veh83" type="veh_passenger" depart="146.33" departLane="best" departSpeed="max" from="-135664624#1" to="135430892"/>
    <trip id="veh84" type="veh_passenger" depart="148.09" departLane="best" from="1312432763#0" to="135448704#1"/>
    <trip id="veh85" type="veh_passenger" depart="149.85" departLane="best" from="34149696#0" to="255512453"/>
    <trip id="veh86" type="veh_passenger" depart="151.61" departLane="best" from="939109627#0" to="-135667683#0"/>
    <trip id="veh87" type="veh_passenger" depart="153.38" departLane="best" from="129378667#0" to="-127003472#2"/>
    <trip id="veh88" type="veh_passenger" depart="155.14" departLane="best" from="541337243#5" to="-694100499#1"/>
    <trip id="veh89" type="veh_passenger" depart="156.90" departLane="best" from="34634081#2" to="135440071#1"/>
    <trip id="veh90" type="veh_passenger" depart="158.67" departLane="best" from="131117149" to="1092110078"/>
    <trip id="veh91" type="veh_passenger" depart="160.43" departLane="best" departSpeed="max" from="-559442191#3" to="694061063#1"/>
    <trip id="veh92" type="veh_passenger" depart="162.19" departLane="best" from="135318911#0" to="549319296#0"/>
    <trip id="veh93" type="veh_passenger" depart="163.95" departLane="best" departSpeed="max" from="135667683#0" to="-1308263044"/>
    <trip id="veh94" type="veh_passenger" depart="165.72" departLane="best" from="-960101270#0" to="541337244"/>
    <trip id="veh95" type="veh_passenger" depart="167.48" departLane="best" from="911051622" to="694100498"/>
    <trip id="veh96" type="veh_passenger" depart="169.24" departLane="best" from="538984332" to="-238113705"/>
    <trip id="veh97" type="veh_passenger" depart="171.01" departLane="best" departSpeed="max" from="135448687" to="494457232#3"/>
    <trip id="veh98" type="veh_passenger" depart="172.77" departLane="best" departSpeed="max" from="1282212330#0" to="134404875#2"/>
    <trip id="veh99" type="veh_passenger" depart="174.53" departLane="best" from="127003506" to="939109627#1"/>
    <trip id="veh100" type="veh_passenger" depart="176.30" departLane="best" from="-694100499#2" to="497767446"/>
    <trip id="veh101" type="veh_passenger" depart="178.06" departLane="best" departSpeed="max" from="815105913#0" to="959712387"/>
    <trip id="veh102" type="veh_passenger" depart="179.82" departLane="best" departSpeed="max" from="135668513" to="34262530"/>
    <trip id="veh103" type="veh_passenger" depart="181.58" departLane="best" from="176509600#3" to="111758256#1"/>
    <trip id="veh104" type="veh_passenger" depart="183.35" departLane="best" from="-910534361#1" to="152278360"/>
    <trip id="veh105" type="veh_passenger" depart="185.11" departLane="best" from="135663873#1" to="411775913"/>
    <trip id="veh106" type="veh_passenger" depart="186.87" departLane="best" from="135165691#4" to="152348500#1"/>
    <trip id="veh107" type="veh_passenger" depart="188.64" departLane="best" from="135641873#1" to="542401256#1"/>
    <trip id="veh108" type="veh_passenger" depart="190.40" departLane="best" from="-235219185#1" to="-815988679#2"/>
    <trip id="veh109" type="veh_passenger" depart="192.16" departLane="best" from="135643609#0" to="34149627#3"/>
    <trip id="veh110" type="veh_passenger" depart="193.93" departLane="best" departSpeed="max" from="149160642" to="255512455#1"/>
    <trip id="veh111" type="veh_passenger" depart="195.69" departLane="best" from="-556303397#0" to="-149160642"/>
    <trip id="veh112" type="veh_passenger" depart="197.45" departLane="best" from="55805248#1" to="-686659367"/>
    <trip id="veh113" type="veh_passenger" depart="199.21" departLane="best" departSpeed="max" from="149160642" to="-158029522"/>
    <trip id="veh114" type="veh_passenger" depart="200.98" departLane="best" from="131114434#6" to="152282295"/>
    <trip id="veh115" type="veh_passenger" depart="202.74" departLane="best" from="135660319#3" to="785972279#1"/>
    <trip id="veh116" type="veh_passenger" depart="204.50" departLane="best" from="-494457226#1" to="34262489#1"/>
    <trip id="veh117" type="veh_passenger" depart="206.27" departLane="best" from="-556466050#3" to="1312446725"/>
    <trip id="veh118" type="veh_passenger" depart="208.03" departLane="best" from="-235219185#0" to="111762619"/>
    <trip id="veh119" type="veh_passenger" depart="209.79" departLane="best" from="111757790#1" to="-42772214#1"/>
    <trip id="veh120" type="veh_passenger" depart="211.55" departLane="best" from="-135448698#0" to="135448688#2"/>
    <trip id="veh121" type="veh_passenger" depart="213.32" departLane="best" from="960101267#1" to="959712387"/>
    <trip id="veh122" type="veh_passenger" depart="215.08" departLane="best" departSpeed="max" from="-135448698#1" to="494457232#2"/>
    <trip id="veh123" type="veh_passenger" depart="216.84" departLane="best" from="-694100499#2" to="701029089#1"/>
    <trip id="veh124" type="veh_passenger" depart="218.61" departLane="best" from="549319296#1" to="55814558#2"/>
    <trip id="veh125" type="veh_passenger" depart="220.37" departLane="best" departSpeed="max" from="127003496#0" to="-176509601"/>
    <trip id="veh126" type="veh_passenger" depart="222.13" departLane="best" from="538194727" to="34127466"/>
    <trip id="veh127" type="veh_passenger" depart="223.90" departLane="best" from="152282270#1" to="939109633#1"/>
    <trip id="veh128" type="veh_passenger" depart="225.66" departLane="best" departSpeed="max" from="173245223" to="-119236133#0"/>
    <trip id="veh129" type="veh_passenger" depart="227.42" departLane="best" from="504776815#0" to="111762619"/>
    <trip id="veh130" type="veh_passenger" depart="229.18" departLane="best" from="176509605#1" to="789117555#2"/>
    <trip id="veh131" type="veh_passenger" depart="230.95" departLane="best" departSpeed="max" from="-157721993#2" to="-146634192#1"/>
    <trip id="veh132" type="veh_passenger" depart="232.71" departLane="best" from="146414486#1" to="144074714#0"/>
    <trip id="veh133" type="veh_passenger" depart="234.47" departLane="best" from="-789117555#2" to="157721987#1"/>
    <trip id="veh134" type="veh_passenger" depart="236.24" departLane="best" from="33654363#5" to="-493286526"/>
    <trip id="veh135" type="veh_passenger" depart="238.00" departLane="best" from="158029522" to="-846798136#2"/>
    <trip id="veh136" type="veh_passenger" depart="239.76" departLane="best" departSpeed="max" from="135448691#0" to="605255880"/>
    <trip id="veh137" type="veh_passenger" depart="241.52" departLane="best" departSpeed="max" from="538945664#0" to="-135663872#0"/>
    <trip id="veh138" type="veh_passenger" depart="243.29" departLane="best" from="1312432763#0" to="1078551827"/>
    <trip id="veh139" type="veh_passenger" depart="245.05" departLane="best" departSpeed="max" from="-111720089#2" to="-494457224#1"/>
    <trip id="veh140" type="veh_passenger" depart="246.81" departLane="best" from="168729303#1" to="-815988679#6"/>
    <trip id="veh141" type="veh_passenger" depart="248.58" departLane="best" from="-34633578#0" to="144074713"/>
    <trip id="veh142" type="veh_passenger" depart="250.34" departLane="best" from="1312432761" to="-122054851#0"/>
    <trip id="veh143" type="veh_passenger" depart="252.10" departLane="best" departSpeed="max" from="-135448698#1" to="55817445"/>
    <trip id="veh144" type="veh_passenger" depart="253.87" departLane="best" from="-559442191#1" to="137614591#3"/>
    <trip id="veh145" type="veh_passenger" depart="255.63" departLane="best" from="-538194728" to="152278371#2"/>
    <trip id="veh146" type="veh_passenger" depart="257.39" departLane="best" from="-172547674#2" to="-152348688"/>
    <trip id="veh147" type="veh_passenger" depart="259.15" departLane="best" from="1092110084" to="561504939"/>
    <trip id="veh148" type="veh_passenger" depart="260.92" departLane="best" from="-494457228#0" to="549206262"/>
    <trip id="veh149" type="veh_passenger" depart="262.68" departLane="best" from="55814559#0" to="-494457228#3"/>
    <trip id="veh150" type="veh_passenger" depart="264.44" departLane="best" departSpeed="max" from="-559442191#3" to="-135863822#0"/>
    <trip id="veh151" type="veh_passenger" depart="266.21" departLane="best" departSpeed="max" from="493286523" to="55821531#1"/>
    <trip id="veh152" type="veh_passenger" depart="267.97" departLane="best" from="130801249" to="168729303#1"/>
    <trip id="veh153" type="veh_passenger" depart="269.73" departLane="best" from="-176509600#3" to="694100500#2"/>
    <trip id="veh154" type="veh_passenger" depart="271.50" departLane="best" from="541678030" to="939109593"/>
    <trip id="veh155" type="veh_passenger" depart="273.26" departLane="best" from="504776812#2" to="55814560#1"/>
    <trip id="veh156" type="veh_passenger" depart="275.02" departLane="best" departSpeed="max" from="119236133#0" to="700682684#0"/>
    <trip id="veh157" type="veh_passenger" depart="276.78" departLane="best" departSpeed="max" from="496358718" to="556303396#0"/>
    <trip id="veh158" type="veh_passenger" depart="278.55" departLane="best" from="504776812#2" to="959158283"/>
    <trip id="veh159" type="veh_passenger" depart="280.31" departLane="best" from="493286528#1" to="-139239467"/>
    <trip id="veh161" type="veh_passenger" depart="283.84" departLane="best" departSpeed="max" from="-541332669" to="538590273#0"/>
    <trip id="veh162" type="veh_passenger" depart="285.60" departLane="best" from="135425024#0" to="118248798#0"/>
    <trip id="veh163" type="veh_passenger" depart="287.36" departLane="best" from="494457228#2" to="-541689219"/>
    <trip id="veh164" type="veh_passenger" depart="289.12" departLane="best" departSpeed="max" from="-1261975641" to="-34634081#2"/>
    <trip id="veh165" type="veh_passenger" depart="290.89" departLane="best" from="118248809#1" to="556303396#1"/>
    <trip id="veh166" type="veh_passenger" depart="292.65" departLane="best" from="850328478#1" to="1092110079"/>
    <trip id="veh167" type="veh_passenger" depart="294.41" departLane="best" departSpeed="max" from="168731245" to="134404753#1"/>
    <trip id="veh168" type="veh_passenger" depart="296.18" departLane="best" from="939109607" to="135674908#0"/>
    <trip id="veh169" type="veh_passenger" depart="297.94" departLane="best" from="785972279#2" to="-146634192#1"/>
    <trip id="veh170" type="veh_passenger" depart="299.70" departLane="best" from="911051623" to="255512453"/>
    <trip id="veh171" type="veh_passenger" depart="301.47" departLane="best" from="815988679#4" to="-910534361#0"/>
    <trip id="veh172" type="veh_passenger" depart="303.23" departLane="best" from="-34149677" to="1209354579#1"/>
    <trip id="veh173" type="veh_passenger" depart="304.99" departLane="best" from="152276006#0" to="135660341#0"/>
    <trip id="veh174" type="veh_passenger" depart="306.75" departLane="best" from="127003526#1" to="152276004"/>
    <trip id="veh175" type="veh_passenger" depart="308.52" departLane="best" departSpeed="max" from="-561504939" to="34149656"/>
    <trip id="veh176" type="veh_passenger" depart="310.28" departLane="best" from="-1078551827" to="694061065"/>
    <trip id="veh177" type="veh_passenger" depart="312.04" departLane="best" departSpeed="max" from="135663872#0" to="34633524#1"/>
    <trip id="veh178" type="veh_passenger" depart="313.81" departLane="best" from="-34633578#1" to="246181124"/>
    <trip id="veh179" type="veh_passenger" depart="315.57" departLane="best" from="127003479#2" to="135440071#0"/>
    <trip id="veh180" type="veh_passenger" depart="317.33" departLane="best" from="176509605#2" to="1261975641"/>
    <trip id="veh181" type="veh_passenger" depart="319.09" departLane="best" from="-111720089#1" to="-541716008"/>
    <trip id="veh182" type="veh_passenger" depart="320.86" departLane="best" departSpeed="max" from="34039651" to="1121680155"/>
    <trip id="veh183" type="veh_passenger" depart="322.62" departLane="best" from="1116526242#0" to="-135165691#5"/>
    <trip id="veh184" type="veh_passenger" depart="324.38" departLane="best" departSpeed="max" from="1282212330#0" to="111758256#0"/>
    <trip id="veh186" type="veh_passenger" depart="327.91" departLane="best" from="789117554#1" to="269505416#1"/>
    <trip id="veh187" type="veh_passenger" depart="329.67" departLane="best" from="55819461" to="157748136"/>
    <trip id="veh188" type="veh_passenger" depart="331.44" departLane="best" from="107701943#2" to="137614595#2"/>
    <trip id="veh189" type="veh_passenger" depart="333.20" departLane="best" from="-1072590409#1" to="1116531584"/>
    <trip id="veh190" type="veh_passenger" depart="334.96" departLane="best" from="135258442" to="494457232#3"/>
    <trip id="veh191" type="veh_passenger" depart="336.72" departLane="best" from="135435682#1" to="57928384#1"/>
    <trip id="veh192" type="veh_passenger" depart="338.49" departLane="best" from="494457229" to="-243526018#4"/>
    <trip id="veh193" type="veh_passenger" depart="340.25" departLane="best" departSpeed="max" from="-135660339#1" to="135660352#1"/>
    <trip id="veh194" type="veh_passenger" depart="342.01" departLane="best" from="157748138#1" to="1265321923"/>
    <trip id="veh195" type="veh_passenger" depart="343.78" departLane="best" from="506500941#0" to="422461215#1"/>
    <trip id="veh196" type="veh_passenger" depart="345.54" departLane="best" departSpeed="max" from="235375222" to="-541332677#3"/>
    <trip id="veh197" type="veh_passenger" depart="347.30" departLane="best" from="-42772214#1" to="-127003483#0"/>
    <trip id="veh198" type="veh_passenger" depart="349.07" departLane="best" departSpeed="max" from="-55821531#1" to="135641874#4"/>
    <trip id="veh199" type="veh_passenger" depart="350.83" departLane="best" from="538984333" to="-135448687"/>
    <trip id="veh200" type="veh_passenger" depart="352.59" departLane="best" from="493286528#1" to="172547669#1"/>
    <trip id="veh201" type="veh_passenger" depart="354.35" departLane="best" from="-38697266#0" to="33653759#1"/>
    <trip id="veh202" type="veh_passenger" depart="356.12" departLane="best" from="-176451390" to="1122735505#2"/>
    <trip id="veh204" type="veh_passenger" depart="359.64" departLane="best" from="-493897271" to="135424856#0"/>
    <trip id="veh206" type="veh_passenger" depart="363.17" departLane="best" from="135643613" to="-1308263044"/>
    <trip id="veh207" type="veh_passenger" depart="364.93" departLane="best" departSpeed="max" from="-559442191#3" to="541716008"/>
    <trip id="veh208" type="veh_passenger" depart="366.69" departLane="best" from="135424859" to="506500941#3"/>
    <trip id="veh209" type="veh_passenger" depart="368.46" departLane="best" from="176509609#1" to="939109633#2"/>
    <trip id="veh210" type="veh_passenger" depart="370.22" departLane="best" departSpeed="max" from="149160642" to="797673281"/>
    <trip id="veh211" type="veh_passenger" depart="371.98" departLane="best" from="55805248#2" to="157727318"/>
    <trip id="veh213" type="veh_passenger" depart="375.51" departLane="best" from="538053209" to="137614595#2"/>
    <trip id="veh215" type="veh_passenger" depart="379.04" departLane="best" from="-135440071#0" to="797673281"/>
    <trip id="veh216" type="veh_passenger" depart="380.80" departLane="best" departSpeed="max" from="-559442191#3" to="172547682"/>
    <trip id="veh217" type="veh_passenger" depart="382.56" departLane="best" from="411775061#2" to="135663874#0"/>
    <trip id="veh218" type="veh_passenger" depart="384.32" departLane="best" from="157721977#2" to="107701943#1"/>
    <trip id="veh219" type="veh_passenger" depart="386.09" departLane="best" from="-135641873#0" to="1116526323#0"/>
    <trip id="veh220" type="veh_passenger" depart="387.85" departLane="best" from="-789117555#1" to="122054852#3"/>
    <trip id="veh221" type="veh_passenger" depart="389.61" departLane="best" departSpeed="max" from="135663872#0" to="-157726191#2"/>
    <trip id="veh222" type="veh_passenger" depart="391.38" departLane="best" departSpeed="max" from="-542401272" to="33609008"/>
    <trip id="veh223" type="veh_passenger" depart="393.14" departLane="best" from="30008037#4" to="-135196403#1"/>
    <trip id="veh224" type="veh_passenger" depart="394.90" departLane="best" from="1308263032#1" to="135896664#1"/>
    <trip id="veh225" type="veh_passenger" depart="396.66" departLane="best" from="131114434#2" to="494457224#1"/>
    <trip id="veh226" type="veh_passenger" depart="398.43" departLane="best" from="131114434#7" to="605255880"/>
    <trip id="veh227" type="veh_passenger" depart="400.19" departLane="best" departSpeed="max" from="146414486#0" to="33653759#0"/>
    <trip id="veh228" type="veh_passenger" depart="401.95" departLane="best" from="541332670" to="493286528#0"/>
    <trip id="veh229" type="veh_passenger" depart="403.72" departLane="best" from="127003519#0" to="-1126924947"/>
    <trip id="veh230" type="veh_passenger" depart="405.48" departLane="best" departSpeed="max" from="124425272#0" to="42772834#2"/>
    <trip id="veh231" type="veh_passenger" depart="407.24" departLane="best" departSpeed="max" from="539617195" to="815086056"/>
    <trip id="veh232" type="veh_passenger" depart="409.01" departLane="best" from="131114434#6" to="411775061#4"/>
    <trip id="veh233" type="veh_passenger" depart="410.77" departLane="best" from="135663875#1" to="157721987#1"/>
    <trip id="veh234" type="veh_passenger" depart="412.53" departLane="best" from="-539599343#0" to="-538053209"/>
    <trip id="veh235" type="veh_passenger" depart="414.29" departLane="best" from="135165691#1" to="-127003496#0"/>
    <trip id="veh236" type="veh_passenger" depart="416.06" departLane="best" from="1209354579#1" to="274708146"/>
    <trip id="veh237" type="veh_passenger" depart="417.82" departLane="best" from="1299122927" to="-235375222"/>
    <trip id="veh238" type="veh_passenger" depart="419.58" departLane="best" from="135435668#1" to="-152348688"/>
    <trip id="veh239" type="veh_passenger" depart="421.35" departLane="best" from="157721955#1" to="-127003493"/>
    <trip id="veh240" type="veh_passenger" depart="423.11" departLane="best" from="-127003544#2" to="148818688"/>
    <trip id="veh241" type="veh_passenger" depart="424.87" departLane="best" from="-127003472#2" to="-176451390"/>
    <trip id="veh242" type="veh_passenger" depart="426.64" departLane="best" from="-157727318" to="135448698#0"/>
    <trip id="veh243" type="veh_passenger" depart="428.40" departLane="best" from="1312432765#3" to="131114432#2"/>
    <trip id="veh244" type="veh_passenger" depart="430.16" departLane="best" from="-502202660" to="124425270#1"/>
    <trip id="veh246" type="veh_passenger" depart="433.69" departLane="best" from="-560309493#1" to="-135641870"/>
    <trip id="veh247" type="veh_passenger" depart="435.45" departLane="best" from="-1230883259#0" to="135890454"/>
    <trip id="veh248" type="veh_passenger" depart="437.21" departLane="best" from="-960101270#1" to="127003519#1"/>
    <trip id="veh250" type="veh_passenger" depart="440.74" departLane="best" from="172557273" to="42772834#3"/>
    <trip id="veh251" type="veh_passenger" depart="442.50" departLane="best" from="791160564" to="-411818822"/>
    <trip id="veh252" type="veh_passenger" depart="444.26" departLane="best" from="-1230883259#2" to="172550490"/>
    <trip id="veh253" type="veh_passenger" depart="446.03" departLane="best" departSpeed="max" from="-157717720" to="246180935#6"/>
    <trip id="veh254" type="veh_passenger" depart="447.79" departLane="best" from="135674908#2" to="-538053197"/>
    <trip id="veh255" type="veh_passenger" depart="449.55" departLane="best" departSpeed="max" from="255784627" to="493286528#2"/>
    <trip id="veh256" type="veh_passenger" depart="451.32" departLane="best" departSpeed="max" from="-255512455#1" to="157721992"/>
    <trip id="veh257" type="veh_passenger" depart="453.08" departLane="best" from="506500941#2" to="844878488"/>
    <trip id="veh258" type="veh_passenger" depart="454.84" departLane="best" from="146634192#0" to="-127003493"/>
    <trip id="veh259" type="veh_passenger" depart="456.61" departLane="best" from="1116526323#1" to="269505416#1"/>
    <trip id="veh260" type="veh_passenger" depart="458.37" departLane="best" departSpeed="max" from="815105913#0" to="1312446726#1"/>
    <trip id="veh261" type="veh_passenger" depart="460.13" departLane="best" from="33654363#1" to="-135448691#0"/>
    <trip id="veh262" type="veh_passenger" depart="461.89" departLane="best" from="246180935#5" to="172518594"/>
    <trip id="veh263" type="veh_passenger" depart="463.66" departLane="best" departSpeed="max" from="-144074713" to="494457226#1"/>