<routes>
        <vType id="car" accel="0.8" decel="4.5" sigma="0.5" length="5" minGap="2.5" maxSpeed="16.67" guiShape="passenger"/>
        <vType id="bus" accel="0.8" decel="4.5" sigma="0.5" length="7" minGap="3" maxSpeed="25" guiShape="bus"/>

        <route id="right" edges="-EE -EW" />
        <route id="left" edges="EW EE" />
        <route id="down" edges="-EN -ES" />
        <route id="up" edges="ES EN" />
    <vehicle id="right_0" type="car" route="right" depart="0" />
    <vehicle id="right_1" type="car" route="right" depart="2" />
    <vehicle id="up_2" type="car" route="up" depart="5"/>
    <vehicle id="left_3" type="car" route="left" depart="7" />
    <vehicle id="right_4" type="car" route="right" depart="12" />
    <vehicle id="up_5" type="car" route="up" depart="13"/>
    <vehicle id="left_6" type="car" route="left" depart="16" />
    <vehicle id="down_7" type="car" route="down" depart="16"/>
    <vehicle id="down_8" type="car" route="down" depart="17"/>
    <vehicle id="left_9" type="car" route="left" depart="18" />
    <vehicle id="left_10" type="car" route="left" depart="19" />
    <vehicle id="left_11" type="car" route="left" depart="20" />
    <vehicle id="down_12" type="car" route="down" depart="21"/>
    <vehicle id="down_13" type="car" route="down" depart="24"/>
    <vehicle id="left_14" type="car" route="left" depart="27" />
    <vehicle id="down_15" type="car" route="down" depart="29"/>
    <vehicle id="down_16" type="car" route="down" depart="31"/>
    <vehicle id="right_17" type="car" route="right" depart="32" />
    <vehicle id="left_18" type="car" route="left" depart="32" />
    <vehicle id="right_19" type="car" route="right" depart="39" />
    <vehicle id="left_20" type="car" route="left" depart="39" />
    <vehicle id="left_21" type="car" route="left" depart="45" />
    <vehicle id="up_22" type="car" route="up" depart="45"/>
    <vehicle id="up_23" type="car" route="up" depart="51"/>
    <vehicle id="right_24" type="car" route="right" depart="55" />
    <vehicle id="left_25" type="car" route="left" depart="55" />
    <vehicle id="down_26" type="car" route="down" depart="55"/>
    <vehicle id="down_27" type="car" route="down" depart="58"/>
    <vehicle id="right_28" type="car" route="right" depart="61" />
    <vehicle id="right_29" type="car" route="right" depart="65" />
    <vehicle id="down_30" type="car" route="down" depart="66"/>
    <vehicle id="down_31" type="car" route="down" depart="67"/>
    <vehicle id="right_32" type="car" route="right" depart="71" />
    <vehicle id="left_33" type="car" route="left" depart="73" />
    <vehicle id="right_34" type="car" route="right" depart="74" />
    <vehicle id="left_35" type="car" route="left" depart="82" />
    <vehicle id="right_36" type="car" route="right" depart="83" />
    <vehicle id="down_37" type="car" route="down" depart="90"/>
    <vehicle id="left_38" type="car" route="left" depart="92" />
    <vehicle id="left_39" type="car" route="left" depart="94" />
    <vehicle id="down_40" type="car" route="down" depart="95"/>
    <vehicle id="right_41" type="car" route="right" depart="99" />
    <vehicle id="left_42" type="car" route="left" depart="99" />
    <vehicle id="up_43" type="car" route="up" depart="99"/>
    <vehicle id="right_44" type="car" route="right" depart="100" />
    <vehicle id="right_45" type="car" route="right" depart="101" />
    <vehicle id="down_46" type="car" route="down" depart="103"/>
    <vehicle id="right_47" type="car" route="right" depart="106" />
    <vehicle id="up_48" type="car" route="up" depart="106"/>
    <vehicle id="left_49" type="car" route="left" depart="109" />
    <vehicle id="left_50" type="car" route="left" depart="114" />
    <vehicle id="down_51" type="car" route="down" depart="117"/>
    <vehicle id="right_52" type="car" route="right" depart="118" />
    <vehicle id="down_53" type="car" route="down" depart="118"/>
    <vehicle id="left_54" type="car" route="left" depart="119" />
    <vehicle id="down_55" type="car" route="down" depart="120"/>
    <vehicle id="up_56" type="car" route="up" depart="120"/>
    <vehicle id="left_57" type="car" route="left" depart="121" />
    <vehicle id="up_58" type="car" route="up" depart="122"/>
    <vehicle id="up_59" type="car" route="up" depart="124"/>
    <vehicle id="up_60" type="car" route="up" depart="131"/>
    <vehicle id="up_61" type="car" route="up" depart="133"/>
    <vehicle id="left_62" type="car" route="left" depart="135" />
    <vehicle id="down_63" type="car" route="down" depart="140"/>
    <vehicle id="up_64" type="car" route="up" depart="140"/>
    <vehicle id="right_65" type="car" route="right" depart="146" />
    <vehicle id="left_66" type="car" route="left" depart="154" />
    <vehicle id="up_67" type="bus" route="up" depart="154"/>
    <vehicle id="right_68" type="car" route="right" depart="156" />
    <vehicle id="up_69" type="car" route="up" depart="156"/>
    <vehicle id="right_70" type="car" route="right" depart="158" />
    <vehicle id="down_71" type="car" route="down" depart="158"/>
    <vehicle id="left_72" type="car" route="left" depart="161" />
    <vehicle id="right_73" type="car" route="right" depart="166" />
    <vehicle id="down_74" type="car" route="down" depart="169"/>
    <vehicle id="up_75" type="car" route="up" depart="169"/>
    <vehicle id="right_76" type="car" route="right" depart="177" />
    <vehicle id="up_77" type="car" route="up" depart="178"/>
    <vehicle id="down_78" type="car" route="down" depart="179"/>
    <vehicle id="right_79" type="car" route="right" depart="182" />
    <vehicle id="left_80" type="car" route="left" depart="184" />
    <vehicle id="up_81" type="car" route="up" depart="187"/>
    <vehicle id="right_82" type="car" route="right" depart="188" />
    <vehicle id="right_83" type="car" route="right" depart="189" />
    <vehicle id="up_84" type="car" route="up" depart="189"/>
    <vehicle id="left_85" type="car" route="left" depart="190" />
    <vehicle id="right_86" type="car" route="right" depart="193" />
    <vehicle id="up_87" type="car" route="up" depart="194"/>
    <vehicle id="up_88" type="car" route="up" depart="195"/>
    <vehicle id="right_89" type="car" route="right" depart="200" />
    <vehicle id="right_90" type="car" route="right" depart="202" />
    <vehicle id="left_91" type="car" route="left" depart="208" />
    <vehicle id="down_92" type="car" route="down" depart="208"/>
    <vehicle id="right_93" type="car" route="right" depart="209" />
    <vehicle id="left_94" type="car" route="left" depart="211" />
    <vehicle id="down_95" type="car" route="down" depart="211"/>
    <vehicle id="up_96" type="car" route="up" depart="211"/>
    <vehicle id="left_97" type="car" route="left" depart="214" />
    <vehicle id="left_98" type="car" route="left" depart="217" />
    <vehicle id="up_99" type="car" route="up" depart="218"/>
    <vehicle id="down_100" type="car" route="down" depart="220"/>
    <vehicle id="down_101" type="car" route="down" depart="223"/>
    <vehicle id="up_102" type="car" route="up" depart="225"/>
    <vehicle id="right_103" type="car" route="right" depart="227" />
    <vehicle id="down_104" type="car" route="down" depart="227"/>
    <vehicle id="right_105" type="car" route="right" depart="228" />
    <vehicle id="left_106" type="car" route="left" depart="228" />
    <vehicle id="right_107" type="car" route="right" depart="229" />
    <vehicle id="right_108" type="car" route="right" depart="230" />
    <vehicle id="down_109" type="car" route="down" depart="231"/>
    <vehicle id="right_110" type="car" route="right" depart="235" />
    <vehicle id="left_111" type="car" route="left" depart="235" />
    <vehicle id="up_112" type="car" route="up" depart="235"/>
    <vehicle id="right_113" type="car" route="right" depart="236" />
    <vehicle id="left_114" type="car" route="left" depart="241" />
    <vehicle id="left_115" type="car" route="left" depart="242" />
    <vehicle id="left_116" type="car" route="left" depart="247" />
    <vehicle id="right_117" type="car" route="right" depart="248" />
    <vehicle id="left_118" type="car" route="left" depart="248" />
    <vehicle id="up_119" type="car" route="up" depart="250"/>
    <vehicle id="up_120" type="car" route="up" depart="252"/>
    <vehicle id="left_121" type="car" route="left" depart="254" />
    <vehicle id="right_122" type="car" route="right" depart="256" />
    <vehicle id="up_123" type="car" route="up" depart="258"/>
    <vehicle id="right_124" type="car" route="right" depart="262" />
    <vehicle id="left_125" type="car" route="left" depart="262" />
    <vehicle id="left_126" type="car" route="left" depart="264" />
    <vehicle id="down_127" type="car" route="down" depart="265"/>
    <vehicle id="right_128" type="car" route="right" depart="269" />
    <vehicle id="down_129" type="car" route="down" depart="269"/>
    <vehicle id="down_130" type="car" route="down" depart="272"/>
    <vehicle id="up_131" type="car" route="up" depart="276"/>
    <vehicle id="left_132" type="car" route="left" depart="280" />
    <vehicle id="up_133" type="car" route="up" depart="283"/>
    <vehicle id="left_134" type="car" route="left" depart="284" />
    <vehicle id="right_135" type="car" route="right" depart="292" />
    <vehicle id="up_136" type="car" route="up" depart="294"/>
    <vehicle id="up_137" type="car" route="up" depart="299"/>
    <vehicle id="left_138" type="car" route="left" depart="300" />
    <vehicle id="right_139" type="car" route="right" depart="305" />
    <vehicle id="down_140" type="car" route="down" depart="305"/>
    <vehicle id="left_141" type="car" route="left" depart="306" />
    <vehicle id="right_142" type="car" route="right" depart="314" />
    <vehicle id="down_143" type="car" route="down" depart="316"/>
    <vehicle id="right_144" type="car" route="right" depart="317" />
    <vehicle id="left_145" type="car" route="left" depart="319" />
    <vehicle id="right_146" type="car" route="right" depart="320" />
    <vehicle id="right_147" type="car" route="right" depart="321" />
    <vehicle id="right_148" type="car" route="right" depart="323" />
    <vehicle id="right_149" type="car" route="right" depart="324" />
    <vehicle id="up_150" type="car" route="up" depart="325"/>
    <vehicle id="down_151" type="car" route="down" depart="327"/>
    <vehicle id="right_152" type="car" route="right" depart="331" />
    <vehicle id="up_153" type="car" route="up" depart="333"/>
    <vehicle id="up_154" type="car" route="up" depart="337"/>
    <vehicle id="up_155" type="car" route="up" depart="345"/>
    <vehicle id="down_156" type="car" route="down" depart="347"/>
    <vehicle id="up_157" type="car" route="up" depart="349"/>
    <vehicle id="up_158" type="car" route="up" depart="350"/>
    <vehicle id="right_159" type="car" route="right" depart="353" />
    <vehicle id="left_160" type="car" route="left" depart="357" />
    <vehicle id="right_161" type="car" route="right" depart="358" />
    <vehicle id="right_162" type="car" route="right" depart="363" />
    <vehicle id="left_163" type="car" route="left" depart="366" />
    <vehicle id="left_164" type="car" route="left" depart="371" />
    <vehicle id="up_165" type="car" route="up" depart="371"/>
    <vehicle id="right_166" type="car" route="right" depart="373" />
    <vehicle id="left_167" type="car" route="left" depart="374" />
    <vehicle id="left_168" type="car" route="left" depart="377" />
    <vehicle id="left_169" type="car" route="left" depart="379" />
    <vehicle id="right_170" type="car" route="right" depart="381" />
    <vehicle id="up_171" type="car" route="up" depart="381"/>
    <vehicle id="left_172" type="car" route="left" depart="383" />
    <vehicle id="left_173" type="car" route="left" depart="386" />
    <vehicle id="right_174" type="car" route="right" depart="388" />
    <vehicle id="left_175" type="car" route="left" depart="389" />
    <vehicle id="right_176" type="car" route="right" depart="392" />
    <vehicle id="left_177" type="car" route="left" depart="393" />
    <vehicle id="up_178" type="car" route="up" depart="393"/>
    <vehicle id="left_179" type="car" route="left" depart="396" />
    <vehicle id="up_180" type="car" route="up" depart="396"/>
    <vehicle id="right_181" type="car" route="right" depart="399" />
    <vehicle id="left_182" type="car" route="left" depart="410" />
    <vehicle id="down_183" type="car" route="down" depart="411"/>
    <vehicle id="right_184" type="car" route="right" depart="414" />
    <vehicle id="right_185" type="car" route="right" depart="417" />
    <vehicle id="right_186" type="car" route="right" depart="420" />
    <vehicle id="right_187" type="car" route="right" depart="422" />
    <vehicle id="down_188" type="car" route="down" depart="425"/>
    <vehicle id="right_189" type="car" route="right" depart="429" />
    <vehicle id="up_190" type="car" route="up" depart="429"/>
    <vehicle id="left_191" type="car" route="left" depart="431" />
    <vehicle id="left_192" type="car" route="left" depart="432" />
    <vehicle id="up_193" type="car" route="up" depart="433"/>
    <vehicle id="right_194" type="car" route="right" depart="436" />
    <vehicle id="left_195" type="car" route="left" depart="436" />
    <vehicle id="up_196" type="car" route="up" depart="436"/>
    <vehicle id="left_197" type="car" route="left" depart="441" />
    <vehicle id="left_198" type="car" route="left" depart="443" />
    <vehicle id="down_199" type="car" route="down" depart="443"/>
    <vehicle id="right_200" type="car" route="right" depart="444" />
    <vehicle id="up_201" type="car" route="up" depart="445"/>
    <vehicle id="up_202" type="car" route="up" depart="447"/>
    <vehicle id="right_203" type="car" route="right" depart="450" />
    <vehicle id="down_204" type="car" route="down" depart="458"/>
    <vehicle id="down_205" type="car" route="down" depart="459"/>
    <vehicle id="down_206" type="car" route="down" depart="462"/>
    <vehicle id="down_207" type="car" route="down" depart="463"/>
    <vehicle id="down_208" type="car" route="down" depart="465"/>
    <vehicle id="up_209" type="car" route="up" depart="467"/>
    <vehicle id="left_210" type="car" route="left" depart="469" />
    <vehicle id="right_211" type="car" route="right" depart="473" />
    <vehicle id="right_212" type="car" route="right" depart="474" />
    <vehicle id="left_213" type="car" route="left" depart="479" />
    <vehicle id="right_214" type="car" route="right" depart="483" />
    <vehicle id="left_215" type="car" route="left" depart="491" />
    <vehicle id="right_216" type="car" route="right" depart="493" />
    <vehicle id="left_217" type="car" route="left" depart="493" />
    <vehicle id="left_218" type="car" route="left" depart="494" />
    <vehicle id="down_219" type="car" route="down" depart="495"/>
    <vehicle id="right_220" type="car" route="right" depart="501" />
    <vehicle id="up_221" type="car" route="up" depart="507"/>
    <vehicle id="right_222" type="car" route="right" depart="510" />
    <vehicle id="right_223" type="car" route="right" depart="514" />
    <vehicle id="down_224" type="car" route="down" depart="514"/>
    <vehicle id="right_225" type="car" route="right" depart="515" />
    <vehicle id="down_226" type="car" route="down" depart="517"/>
    <vehicle id="down_227" type="car" route="down" depart="518"/>
    <vehicle id="left_228" type="car" route="left" depart="519" />
    <vehicle id="down_229" type="car" route="down" depart="519"/>
    <vehicle id="down_230" type="car" route="down" depart="530"/>
    <vehicle id="up_231" type="car" route="up" depart="533"/>
    <vehicle id="left_232" type="car" route="left" depart="534" />
    <vehicle id="up_233" type="car" route="up" depart="534"/>
    <vehicle id="left_234" type="car" route="left" depart="535" />
    <vehicle id="right_235" type="car" route="right" depart="536" />
    <vehicle id="down_236" type="car" route="down" depart="539"/>
    <vehicle id="right_237" type="car" route="right" depart="540" />
    <vehicle id="down_238" type="car" route="down" depart="540"/>
    <vehicle id="right_239" type="car" route="right" depart="541" />
    <vehicle id="down_240" type="car" route="down" depart="541"/>
    <vehicle id="up_241" type="car" route="up" depart="544"/>
    <vehicle id="left_242" type="car" route="left" depart="545" />
    <vehicle id="right_243" type="car" route="right" depart="549" />
    <vehicle id="left_244" type="car" route="left" depart="558" />
    <vehicle id="down_245" type="car" route="down" depart="558"/>
    <vehicle id="right_246" type="car" route="right" depart="560" />
    <vehicle id="right_247" type="car" route="right" depart="564" />
    <vehicle id="down_248" type="car" route="down" depart="564"/>
    <vehicle id="up_249" type="car" route="up" depart="564"/>
    <vehicle id="right_250" type="car" route="right" depart="565" />
    <vehicle id="right_251" type="car" route="right" depart="566" />
    <vehicle id="down_252" type="car" route="down" depart="569"/>
    <vehicle id="right_253" type="car" route="right" depart="570" />
    <vehicle id="up_254" type="car" route="up" depart="576"/>
    <vehicle id="left_255" type="car" route="left" depart="577" />
    <vehicle id="left_256" type="car" route="left" depart="579" />
    <vehicle id="right_257" type="car" route="right" depart="582" />
    <vehicle id="left_258" type="car" route="left" depart="587" />
    <vehicle id="down_259" type="car" route="down" depart="588"/>
    <vehicle id="right_260" type="car" route="right" depart="594" />
    <vehicle id="right_261" type="car" route="right" depart="596" />
    <vehicle id="left_262" type="car" route="left" depart="597" />
    <vehicle id="up_263" type="car" route="up" depart="598"/>
    <vehicle id="up_264" type="car" route="up" depart="599"/>
    <vehicle id="down_265" type="car" route="down" depart="601"/>
    <vehicle id="up_266" type="car" route="up" depart="601"/>
    <vehicle id="right_267" type="car" route="right" depart="602" />
    <vehicle id="down_268" type="car" route="down" depart="602"/>
    <vehicle id="left_269" type="car" route="left" depart="603" />
    <vehicle id="down_270" type="car" route="down" depart="606"/>
    <vehicle id="up_271" type="car" route="up" depart="608"/>
    <vehicle id="left_272" type="car" route="left" depart="609" />
    <vehicle id="down_273" type="car" route="down" depart="611"/>
    <vehicle id="right_274" type="car" route="right" depart="612" />
    <vehicle id="right_275" type="car" route="right" depart="614" />
    <vehicle id="left_276" type="car" route="left" depart="614" />
    <vehicle id="down_277" type="car" route="down" depart="618"/>
    <vehicle id="up_278" type="car" route="up" depart="619"/>
    <vehicle id="right_279" type="car" route="right" depart="622" />
    <vehicle id="left_280" type="car" route="left" depart="623" />
    <vehicle id="down_281" type="car" route="down" depart="625"/>
    <vehicle id="left_282" type="car" route="left" depart="627" />
    <vehicle id="down_283" type="car" route="down" depart="629"/>
    <vehicle id="left_284" type="car" route="left" depart="631" />
    <vehicle id="up_285" type="car" route="up" depart="635"/>
    <vehicle id="right_286" type="car" route="right" depart="636" />
    <vehicle id="right_287" type="car" route="right" depart="638" />
    <vehicle id="left_288" type="car" route="left" depart="640" />
    <vehicle id="up_289" type="car" route="up" depart="642"/>
    <vehicle id="right_290" type="car" route="right" depart="643" />
    <vehicle id="up_291" type="car" route="up" depart="643"/>
    <vehicle id="right_292" type="car" route="right" depart="645" />
    <vehicle id="left_293" type="car" route="left" depart="649" />
    <vehicle id="right_294" type="car" route="right" depart="658" />
    <vehicle id="up_295" type="car" route="up" depart="658"/>
    <vehicle id="right_296" type="car" route="right" depart="659" />
    <vehicle id="down_297" type="car" route="down" depart="660"/>
    <vehicle id="up_298" type="car" route="up" depart="660"/>
    <vehicle id="down_299" type="car" route="down" depart="664"/>
    <vehicle id="up_300" type="car" route="up" depart="664"/>
    <vehicle id="down_301" type="car" route="down" depart="665"/>
    <vehicle id="left_302" type="car" route="left" depart="666" />
    <vehicle id="down_303" type="car" route="down" depart="668"/>
    <vehicle id="left_304" type="car" route="left" depart="669" />
    <vehicle id="right_305" type="car" route="right" depart="672" />
    <vehicle id="up_306" type="car" route="up" depart="678"/>
    <vehicle id="up_307" type="car" route="up" depart="681"/>
    <vehicle id="up_308" type="car" route="up" depart="683"/>
    <vehicle id="right_309" type="car" route="right" depart="684" />
    <vehicle id="up_310" type="car" route="up" depart="689"/>
    <vehicle id="up_311" type="car" route="up" depart="691"/>
    <vehicle id="left_312" type="car" route="left" depart="695" />
    <vehicle id="left_313" type="car" route="left" depart="696" />
    <vehicle id="right_314" type="car" route="right" depart="697" />
    <vehicle id="left_315" type="car" route="left" depart="699" />
    <vehicle id="left_316" type="car" route="left" depart="705" />
    <vehicle id="up_317" type="car" route="up" depart="705"/>
    <vehicle id="down_318" type="car" route="down" depart="706"/>
    <vehicle id="left_319" type="car" route="left" depart="710" />
    <vehicle id="left_320" type="car" route="left" depart="711" />
    <vehicle id="right_321" type="car" route="right" depart="717" />
    <vehicle id="down_322" type="car" route="down" depart="717"/>
    <vehicle id="down_323" type="car" route="down" depart="719"/>
    <vehicle id="up_324" type="car" route="up" depart="721"/>
    <vehicle id="down_325" type="car" route="down" depart="722"/>
    <vehicle id="up_326" type="car" route="up" depart="722"/>
    <vehicle id="down_327" type="car" route="down" depart="724"/>
    <vehicle id="down_328" type="car" route="down" depart="725"/>
    <vehicle id="up_329" type="car" route="up" depart="725"/>
    <vehicle id="right_330" type="car" route="right" depart="726" />
    <vehicle id="left_331" type="car" route="left" depart="727" />
    <vehicle id="down_332" type="car" route="down" depart="729"/>
    <vehicle id="left_333" type="car" route="left" depart="736" />
    <vehicle id="left_334" type="car" route="left" depart="738" />
    <vehicle id="right_335" type="car" route="right" depart="744" />
    <vehicle id="up_336" type="car" route="up" depart="752"/>
    <vehicle id="left_337" type="car" route="left" depart="753" />
    <vehicle id="right_338" type="car" route="right" depart="757" />
    <vehicle id="up_339" type="car" route="up" depart="760"/>
    <vehicle id="up_340" type="car" route="up" depart="761"/>
    <vehicle id="right_341" type="car" route="right" depart="766" />
    <vehicle id="right_342" type="car" route="right" depart="768" />
    <vehicle id="up_343" type="car" route="up" depart="774"/>
    <vehicle id="down_344" type="car" route="down" depart="775"/>
    <vehicle id="up_345" type="car" route="up" depart="779"/>
    <vehicle id="left_346" type="car" route="left" depart="782" />
    <vehicle id="up_347" type="car" route="up" depart="784"/>
    <vehicle id="right_348" type="car" route="right" depart="786" />
    <vehicle id="down_349" type="car" route="down" depart="786"/>
    <vehicle id="right_350" type="car" route="right" depart="788" />
    <vehicle id="up_351" type="car" route="up" depart="788"/>
    <vehicle id="right_352" type="car" route="right" depart="793" />
    <vehicle id="left_353" type="car" route="left" depart="793" />
    <vehicle id="up_354" type="car" route="up" depart="795"/>
    <vehicle id="right_355" type="car" route="right" depart="800" />
    <vehicle id="right_356" type="car" route="right" depart="801" />
    <vehicle id="down_357" type="car" route="down" depart="803"/>
    <vehicle id="down_358" type="car" route="down" depart="804"/>
    <vehicle id="right_359" type="car" route="right" depart="805" />
    <vehicle id="down_360" type="car" route="down" depart="806"/>
    <vehicle id="right_361" type="car" route="right" depart="807" />
    <vehicle id="left_362" type="car" route="left" depart="809" />
    <vehicle id="down_363" type="car" route="down" depart="814"/>
    <vehicle id="up_364" type="car" route="up" depart="822"/>
    <vehicle id="down_365" type="car" route="down" depart="824"/>
    <vehicle id="up_366" type="car" route="up" depart="825"/>
    <vehicle id="right_367" type="car" route="right" depart="829" />
    <vehicle id="right_368" type="car" route="right" depart="830" />
    <vehicle id="up_369" type="car" route="up" depart="830"/>
    <vehicle id="up_370" type="car" route="up" depart="838"/>
    <vehicle id="down_371" type="car" route="down" depart="839"/>
    <vehicle id="down_372" type="car" route="down" depart="841"/>
    <vehicle id="right_373" type="car" route="right" depart="842" />
    <vehicle id="right_374" type="car" route="right" depart="843" />
    <vehicle id="left_375" type="car" route="left" depart="846" />
    <vehicle id="right_376" type="car" route="right" depart="847" />
    <vehicle id="down_377" type="car" route="down" depart="849"/>
    <vehicle id="up_378" type="car" route="up" depart="851"/>
    <vehicle id="right_379" type="car" route="right" depart="857" />
    <vehicle id="right_380" type="car" route="right" depart="860" />
    <vehicle id="left_381" type="car" route="left" depart="862" />
    <vehicle id="up_382" type="car" route="up" depart="864"/>
    <vehicle id="up_383" type="car" route="up" depart="868"/>
    <vehicle id="right_384" type="car" route="right" depart="870" />
    <vehicle id="down_385" type="car" route="down" depart="872"/>
    <vehicle id="left_386" type="car" route="left" depart="874" />
    <vehicle id="left_387" type="car" route="left" depart="875" />
    <vehicle id="down_388" type="car" route="down" depart="876"/>
    <vehicle id="right_389" type="car" route="right" depart="882" />
    <vehicle id="right_390" type="car" route="right" depart="889" />
    <vehicle id="right_391" type="car" route="right" depart="893" />
    <vehicle id="up_392" type="car" route="up" depart="895"/>
    <vehicle id="left_393" type="car" route="left" depart="898" />
    <vehicle id="left_394" type="car" route="left" depart="901" />
    <vehicle id="right_395" type="car" route="right" depart="902" />
    <vehicle id="down_396" type="car" route="down" depart="903"/>
    <vehicle id="right_397" type="car" route="right" depart="906" />
    <vehicle id="left_398" type="car" route="left" depart="916" />
    <vehicle id="up_399" type="car" route="up" depart="917"/>
    <vehicle id="down_400" type="car" route="down" depart="918"/>
    <vehicle id="right_401" type="car" route="right" depart="923" />
    <vehicle id="right_402" type="car" route="right" depart="924" />
    <vehicle id="up_403" type="car" route="up" depart="926"/>
    <vehicle id="right_404" type="car" route="right" depart="927" />
    <vehicle id="right_405" type="car" route="right" depart="930" />
    <vehicle id="right_406" type="car" route="right" depart="931" />
    <vehicle id="up_407" type="car" route="up" depart="934"/>
    <vehicle id="right_408" type="car" route="right" depart="935" />
    <vehicle id="left_409" type="car" route="left" depart="935" />
    <vehicle id="left_410" type="car" route="left" depart="937" />
    <vehicle id="left_411" type="car" route="left" depart="940" />
    <vehicle id="down_412" type="car" route="down" depart="943"/>
    <vehicle id="right_413" type="car" route="right" depart="950" />
    <vehicle id="right_414" type="car" route="right" depart="954" />
    <vehicle id="left_415" type="car" route="left" depart="954" />
    <vehicle id="down_416" type="car" route="down" depart="954"/>
    <vehicle id="left_417" type="car" route="left" depart="955" />
    <vehicle id="right_418" type="car" route="right" depart="958" />
    <vehicle id="up_419" type="car" route="up" depart="960"/>
    <vehicle id="down_420" type="car" route="down" depart="963"/>
    <vehicle id="down_421" type="car" route="down" depart="968"/>
    <vehicle id="right_422" type="car" route="right" depart="971" />
    <vehicle id="right_423" type="car" route="right" depart="973" />
    <vehicle id="left_424" type="car" route="left" depart="973" />
    <vehicle id="up_425" type="car" route="up" depart="975"/>
    <vehicle id="up_426" type="car" route="up" depart="980"/>
    <vehicle id="left_427" type="car" route="left" depart="982" />
    <vehicle id="up_428" type="car" route="up" depart="982"/>
    <vehicle id="up_429" type="car" route="up" depart="983"/>
    <vehicle id="down_430" type="car" route="down" depart="984"/>
    <vehicle id="right_431" type="car" route="right" depart="986" />
    <vehicle id="up_432" type="car" route="up" depart="986"/>
    <vehicle id="right_433" type="car" route="right" depart="989" />
    <vehicle id="up_434" type="car" route="up" depart="990"/>
    <vehicle id="right_435" type="car" route="right" depart="994" />
</routes>
