<?xml version="1.0" encoding="UTF-8"?>

<routes xmlns:xsi="http://www.w3.org/2001/XMLSchema-instance" xsi:noNamespaceSchemaLocation="http://sumo.dlr.de/xsd/routes_file.xsd">
    <vehicle id="2_bus_Linha_Centro:_Azul:0" type="pt_bus" depart="15.00" departLane="1" arrival="63.00">
        <route edges="-541689219"/>
        <stop busStop="-5407623406" duration="30.00"/>
    </vehicle>

    <vehicle id="3_bus_Linha_Centro:_Verde:0" type="pt_bus" depart="17.00" departLane="1" arrival="64.00">
        <route edges="1280691251"/>
        <stop busStop="5394204044" duration="30.00"/>
    </vehicle>

    <vehicle id="1_bus_L4:0" type="pt_bus" depart="15.00" departLane="1" arrival="74.00">
        <route edges="135643607 494457226#0 494457226#1 494457226#3"/>
        <stop busStop="5366100013" duration="30.00"/>
    </vehicle>

    <vehicle id="4_bus_5951:0" type="pt_bus" depart="52.00" departLane="1" arrival="92.00">
        <route edges="494457234"/>
        <stop busStop="5366100012" duration="30.00"/>
    </vehicle>

    <vehicle id="7_bus_L1:0" type="pt_bus" depart="131.00" departLane="1" arrival="172.00">
        <route edges="135643607"/>
        <stop busStop="5366100013" duration="30.00"/>
    </vehicle>

    <vehicle id="0_bus_Transdev:_Aveiro_→_Oliveira_de_Azeméis:0" type="pt_bus" depart="3.00" departLane="1" arrival="238.00">
        <route edges="493286528#0 493286528#1 493286528#2 493286528#3 493286528#4 1186574118 135440066 504776814#0 504776814#1 504776814#2 504776814#3 504776815#0 135441167#0 135441167#1 135441157 135441151 694100494 526801778 95574935 95574937#1 694061067#1 694061066#1 1186574168#0 34730711#0 34730711#1 34730711#2 34730711#3 494457234"/>
        <stop busStop="5366099994" duration="30.00"/>
    </vehicle>

    <vehicle id="5_bus_L11:0" type="pt_bus" depart="93.00" departLane="1" arrival="451.00">
        <route edges="135440071#0 -135440071#0 135441168 694040971#1 694040971#2 694100496 694100497#0 42772834#0 42772834#1 42772834#2 42772834#3 42772834#4 526801778 95574935 95574937#1 694061067#1 694061066#1 1186574168#0 34730711#0 34730711#1 34730711#2 34730711#3 494457234 -556492127 -493897271 33654348#0 556492121 686659353 686659365#1 850328478#1 1186574168#0 1186574168#1 34262475#0 34262475#1 34262489#0 34262489#1 34262489#2 694040969 526801775 694100495 135441155 538590273#0 538590273#1 135441161#2 504776812#0 504776812#1 504776812#2 504776812#3 504776813 1186574117 1312446728"/>
        <stop busStop="-1596871196" duration="30.00"/>
    </vehicle>

    <vehicle id="6_bus_L11:1" type="pt_bus" depart="119.00" departLane="1" arrival="452.00">
        <route edges="33654363#0 33654363#1 55814453 541689217 55814558#0 55814558#1 55814558#2 -135440071#0 135441168 694040971#1 694040971#2 694100496 694100497#0 42772834#0 42772834#1 42772834#2 42772834#3 42772834#4 526801778 95574935 95574937#1 694061067#1 694061066#1 1186574168#0 34730711#0 34730711#1 38697258#0 38697258#1 493897267#1 -146414481 556492127 -556492127 -493897271 33654348#0 556492121 686659353 686659365#1 850328478#1 1186574168#0 1186574168#1 34262475#0 34262475#1 34262489#0 34262489#1 34262489#2 694040969 135441163#0 135441163#1 135441163#2 135441163#3 34262482 34262505 135440071#0 -135440071#0 135441168"/>
        <stop busStop="1596871196" duration="30.00"/>
    </vehicle>

    <vehicle id="8_bus_L2:0" type="pt_bus" depart="132.00" departLane="1" arrival="484.00">
        <route edges="493286523 135660319#0 135660319#1 135660319#2 135660319#3 135430905#0 135430894#1 135430894#2 34262475#0 34262475#1 34262489#0 34262489#1 34262489#2 694040969 526801775 694100495 135441155 538590273#0 538590273#1 55806518#1 55806518#3 694100500#0 694100500#1 694100500#2 694100500#3 135641862 42772213 135641868 -538194726#1 42772214#0 846798136#0 846798136#1 846798136#2 538194727 538194728 135660331 42772215#9 135643607"/>
        <stop busStop="5366334857" duration="30.00"/>
    </vehicle>

    <vehicle id="9_bus_L3:0" type="pt_bus" depart="133.00" departLane="1" arrival="514.00">
        <route edges="33654363#0 33654363#1 33654363#2 33654363#3 33654363#4 33654363#5 538590273#0 538590273#1 55806518#1 55806518#3 694100500#0 694100500#1 694100500#2 694100500#3 135641862 42772213 135641868 -538194726#1 42772214#0 846798136#0 846798136#1 846798136#2 538194727 538194728 135660331 42772215#9 135643607 494457226#0 494457226#1 -494457226#1 -494457226#0 135643608 42772215#1 42772215#2 42772215#4 42772215#5 42772215#6 42772215#7 135660357#0 135660357#1 -538194728 -538194727 -846798136#2 -846798136#1 -846798136#0 -42772214#1 538194726#0 127003506 694100501#0 135662472#0 -34633995#2 -34633995#1 411775061#0 411775061#1 411775061#2 411775061#3 411775061#4 541678034 135448700 176509605#2 176509605#3 176509605#4 694100496 694100497#0 694100497#1 34262482 34262505 135440071#0 -135440071#0 135441168"/>
        <stop busStop="-5366100014" duration="30.00"/>
    </vehicle>

    <vehicle id="11_bus_L6:0" type="pt_bus" depart="201.00" departLane="1" arrival="516.00">
        <route edges="135440071#0 -135440071#0 135441168 694040971#1 33654363#0 33654363#1 33654363#2 33654363#3 33654363#4 33654363#5 538590273#0 538590273#1 55806518#1 55806518#3 694100500#0 694100500#1 694100500#2 694100500#3 135641862 42772213 135641868 -538194726#1 42772214#0 846798136#0 846798136#1 846798136#2 538194727 538194728 135660331 42772215#9 135643607 494457226#0 494457226#1 -494457226#1 -494457226#0 135643608 42772215#1 42772215#2 42772215#4 42772215#5 42772215#6 42772215#7 42772215#8 42772215#9"/>
        <stop busStop="5366100014" duration="30.00"/>
    </vehicle>

    <vehicle id="12_bus_L5:0" type="pt_bus" depart="204.00" departLane="1" arrival="524.00">
        <route edges="493286523 135660319#0 135660319#1 135660319#2 135660319#3 135430905#0 135430894#1 135430894#2 34262475#0 34262475#1 34262489#0 34262489#1 34262489#2 694040969 526801775 694100495 135441155 538590273#0 538590273#1 55806518#1 55806518#3 694100500#0 694100500#1 694100500#2 694100500#3 135641862 42772213 135641868 -538194726#1 42772214#0 846798136#0 846798136#1 846798136#2 538194727 538194728 135660331 42772215#9 135643607"/>
        <stop busStop="5366334857" duration="30.00"/>
    </vehicle>

    <vehicle id="10_bus_L7:0" type="pt_bus" depart="165.00" departLane="0" arrival="540.00">
        <route edges="135430903 494457234"/>
        <stop busStop="5366100012" duration="30.00"/>
        <stop busStop="4857573219" duration="30.00"/>
    </vehicle>

    <vehicle id="18_bus_L3:1" type="pt_bus" depart="389.00" departLane="1" arrival="662.00">
        <route edges="-560761988 494457234 -556492127 -493897271 33654348#0 556492121 686659367 686659355 686659361 686659359 686659356 -850328767 -686659364#0 686659370 794561702#0 794561702#1 794561702#2 127003504#0 127003504#1 1312446723 791160569#0 -538053207#2 -538053207#1 -538053207#0 507548446 152348500#1 791113510 538058563 269505417 538058566#0 238113706 118248802#5 118248805 1062948356 135660347 135660350#0 135660350#1 135660354 42772215#7 42772215#8 42772215#9 135643607 494457226#0 -494457226#0"/>
        <stop busStop="-4857573219" duration="30.00"/>
    </vehicle>

    <vehicle id="13_bus_L9:0" type="pt_bus" depart="253.00" departLane="1" arrival="694.00">
        <route edges="493286523 135660319#0 135660319#1 135660319#2 135660319#3 135430905#0 135430894#1 135430894#2 34262475#0 34262475#1 34262489#0 34262489#1 34262489#2 694040969 135441163#0 135441163#1 135441163#2 135441163#3 34262482 34262505 135440071#0 135440071#1 239129036#0 239129036#1 1077152280 541716009 556280454 556280455 400178787#0 400178787#1 541716003#1 541716001 400178754 -541716009 -1077152280 -239129036#1 -239129036#0 -135440071#1 -135440071#0 135441168 694040971#1 694040971#2 694100496 34262530 243526018#0 243526018#3 127003555 -127003472#2 -127003472#1 -127003472#0 135641873#0 135641873#1 -1126924947 34633995#1 34633995#2 135641880 694100502 1312432759 42772213 135641868 -538194726#1 42772214#0 846798136#0 846798136#1 846798136#2 538194727 538194728 135660331"/>
        <stop busStop="5366334857" duration="30.00"/>
        <stop busStop="-392954393" duration="30.00"/>
        <stop busStop="5368271759" duration="30.00"/>
    </vehicle>

    <vehicle id="19_bus_L11:2" type="pt_bus" depart="406.00" departLane="1" arrival="696.00">
        <route edges="694100496 694100497#0 42772834#0 42772834#1 42772834#2 42772834#3 42772834#4 526801778 95574935 95574937#1 694061067#1 694061066#1 1186574168#0 34730711#0 34730711#1 38697258#0 38697258#1 493897267#1 -146414481 556492127 -556492127 -493897271 33654348#0 556492121 686659353 686659365#1 850328478#1 1186574168#0 1186574168#1 34262475#0 34262475#1 34262489#0 34262489#1 34262489#2 694040969 135441163#0 135441163#1 135441163#2 135441163#3 34262482 34262505 135440071#0 -135440071#0 135441168"/>
        <stop busStop="1596871196" duration="30.00"/>
    </vehicle>

    <vehicle id="20_bus_L6:1" type="pt_bus" depart="434.00" departLane="1" arrival="710.00">
        <route edges="135643607 494457226#0 -494457226#0 135643608 42772215#1 42772215#2 42772215#4 42772215#5 111760345 111759051#0 111759051#1 135660351 549206262 152282270#1 135672088 135672084#0 135672084#1 507548440 131117149 131117151#0 131117151#1 549319296#0 158029674 158029522 559442191#0 559442191#1 559442191#2 559442191#3"/>
        <stop busStop="5366100013" duration="30.00"/>
    </vehicle>

    <vehicle id="14_bus_L10:0" type="pt_bus" depart="303.00" departLane="1" arrival="789.00">
        <route edges="493286523 135660319#0 135660319#1 135660319#2 135660319#3 135660319#4 182176861#1 1263512657#0 1263512657#1 1209354578#1 1209354578#2 1209354580#0 1209354580#1 135660320#0 135660320#1 917634355 917634354 1209354575 496434096 1078551827 269974952 1209354576 541716005 400178787#0 400178787#1 541716003#1 541716001 400178754 -541716009 -1077152280 -239129036#1 -239129036#0 -135440071#1 -135440071#0 135441168 694040971#1 694040971#2 694100496 34262530 243526018#0 243526018#3 127003555 -127003472#2 -127003472#1 -127003472#0 135641873#0 135641873#1 -1126924947 34633995#1 34633995#2 135641880 694100502 1312432759 42772213 135641868 -538194726#1 42772214#0 846798136#0 846798136#1 846798136#2 538194727 538194728 135660331"/>
        <stop busStop="5366334857" duration="30.00"/>
        <stop busStop="7882258878" duration="30.00"/>
        <stop busStop="-392954393" duration="30.00"/>
        <stop busStop="5368271759" duration="30.00"/>
    </vehicle>

    <vehicle id="15_bus_L13:0" type="pt_bus" depart="326.00" departLane="0" arrival="914.00">
        <route edges="358981123 144462183 34039353#0 34039353#1 34039353#2 144458732 -541689237 -41403156 541689229 541689234 -541689219 -541716008 -135440083 135440079 400178754 -541716009 -1077152280 -239129036#1 -239129036#0 -135440071#1 -135440071#0 135441168 694040971#1 694040971#2 694100496 694100497#0 42772834#0 42772834#1 42772834#2 42772834#3 42772834#4 526801778 95574935 95574937#1 694061067#1 694061066#1 1186574168#0 34730711#0 34730711#1 34730711#2 34730711#3 494457234"/>
        <stop busStop="-5407623406" duration="30.00"/>
    </vehicle>

    <vehicle id="16_bus_L1:1" type="pt_bus" depart="353.00" departLane="1" arrival="993.00">
        <route edges="135643607 494457226#0 -494457226#0 135643608 42772215#1 42772215#2 42772215#4 42772215#5 42772215#6 42772215#7 135660357#0 135660357#1 -538194728 -538194727 -846798136#2 -846798136#1 -846798136#0 -42772214#1 538194726#0 127003506 694100501#0 135662472#0 -34633995#2 -34633995#1 411775061#0 411775061#1 411775061#2 411775061#3 411775061#4 541678034 135448700 176509605#2 176509605#3 176509605#4 694100496 694100497#0 42772834#0 42772834#1 42772834#2 42772834#3 42772834#4 526801778 95574935 95574937#1 694061067#1 694061066#1 1186574168#0 34730711#0 34730711#1 34730711#2 34730711#3 494457234"/>
        <stop busStop="5366100013" duration="30.00"/>
    </vehicle>

    <vehicle id="17_bus_L2:1" type="pt_bus" depart="383.00" departLane="1" arrival="996.00">
        <route edges="135643607 494457226#0 -494457226#0 135643608 42772215#1 42772215#2 42772215#4 42772215#5 42772215#6 42772215#7 135660357#0 135660357#1 -538194728 -538194727 -846798136#2 -846798136#1 -846798136#0 -42772214#1 538194726#0 127003506 694100501#0 135662472#0 -34633995#2 -34633995#1 411775061#0 411775061#1 411775061#2 411775061#3 411775061#4 541678034 135448700 176509605#2 176509605#3 176509605#4 694100496 694100497#0 42772834#0 42772834#1 42772834#2 42772834#3 42772834#4 526801778 95574935 95574937#1 694061067#1 694061066#1 1186574168#0 34730711#0 34730711#1 34730711#2 34730711#3 494457234"/>
        <stop busStop="5366100013" duration="30.00"/>
    </vehicle>

    <vehicle id="24_bus_L13:3" type="pt_bus" depart="535.00" departLane="0" arrival="999.00">
        <route edges="358981123 494227161 560794010 182176867 658633126 1092110078 1092110077#0 1092110077#1 1092110077#2 1092110083 -539599342#0 815988679#0 815988679#1 815988679#2 815988679#4 815988679#5 815988679#6 131114431 1116525809#0 1116525809#1 33654371#1 38628967#0 38628967#1 38628967#2 538984333 538984334 493286528#2 493286528#3 493286528#4 1186574118 135440066 504776814#0 504776814#1 504776814#2 504776814#3 504776815#0 135441167#0 135441167#1 135441157 135441151 694100494 526801778 95574935 95574937#1 694061067#1 694061066#1 1186574168#0 34730711#0 34730711#1 34730711#2 34730711#3 494457234"/>
        <stop busStop="5366100005" duration="30.00"/>
    </vehicle>

    <vehicle id="22_bus_L13:1" type="pt_bus" depart="540.00" departLane="1" arrival="1152.00">
        <route edges="494457234 135660319#3 135430905#0 135430894#1 135430894#2 34262475#0 34262475#1 34262489#0 34262489#1 34262489#2 694040969 135441163#0 135441163#1 135441163#2 135441163#3 34262482 34262505 135440071#0 135440071#1 239129036#0 239129036#1 1077152280 541716009 556280454 556280455 400178787#0 400178787#1 541716003#1 31865796 135440083 541716008 541689219 541689232 541689235 541689236#1 41403155 541689237 121252904 34039353#4 34262404 135424863 1315059334#1 497767445 497767446"/>
        <stop busStop="5366100012" duration="30.00"/>
        <stop busStop="4857573219" duration="30.00"/>
        <stop busStop="5366334857" duration="30.00"/>
    </vehicle>

    <vehicle id="21_bus_L9:1" type="pt_bus" depart="441.00" departLane="1" arrival="1163.00">
        <route edges="-560761988 494457234 -556492127 -493897271 33654348#0 493897267#1 -146414481 556492127 -560761988 494457234 -556492127 -493897271 33654348#0 556492121 686659353 686659365#1 850328478#1 1186574168#0 1186574168#1 -135430894#2 -135430894#1 694040966#3 694040966#4"/>
        <stop busStop="-5366100012" duration="30.00"/>
        <stop busStop="-4857573219" duration="30.00"/>
        <stop busStop="5366334858" duration="30.00"/>
    </vehicle>

    <vehicle id="25_bus_5957:0" type="pt_bus" depart="612.00" departLane="1" arrival="1393.00">
        <route edges="494457234 -556492127 -493897271 33654348#0 493897267#1 -146414481 556492127 -560761988 494457234"/>
        <stop busStop="4857573219" duration="30.00"/>
        <stop busStop="5366100012" duration="30.00"/>
    </vehicle>

    <vehicle id="23_bus_L13:2" type="pt_bus" depart="546.00" departLane="1" arrival="1625.00">
        <route edges="494457234 -556492127 -493897271 33654348#0 493897267#1 -146414481 556492127 -560761988 494457234 135660319#3 135430905#0 135430894#1 135430894#2 34262475#0 34262475#1 34262489#0 34262489#1 34262489#2 694040969 526801775 694100495 135441155 538590273#0 538590273#1 135441161#2 504776812#0 504776812#1 504776812#2 504776812#3 504776813 1186574117 131114468 -815988679#6 -815988679#5 -815988679#4 -815988679#2 -815988679#1 -815988679#0 -539599343#0 1092110082 1312446729 1092110086#0 1092110086#1 1092110079 -135663878 -182176867 34039298#0 34039298#1"/>
        <stop busStop="4857573219" duration="30.00"/>
        <stop busStop="5366100012" duration="30.00"/>
        <stop busStop="5366334857" duration="30.00"/>
    </vehicle>

</routes>
