<?xml version="1.0" encoding="UTF-8"?>

<!-- generated on 2024-09-29 11:12:55 by Eclipse SUMO netedit Version 1.20.0
<configuration xmlns:xsi="http://www.w3.org/2001/XMLSchema-instance" xsi:noNamespaceSchemaLocation="http://sumo.dlr.de/xsd/neteditConfiguration.xsd">

    <input>
        <sumo-net-file value="sumo_config/cross/cross.net.xml"/>
    </input>

    <output>
        <output-file value="sumo_config/cross/cross.net.xml"/>
    </output>

    <processing>
        <geometry.min-radius.fix.railways value="false"/>
        <geometry.max-grade.fix value="false"/>
        <offset.disable-normalization value="true"/>
        <lefthand value="0"/>
    </processing>

    <junctions>
        <no-turnarounds value="true"/>
        <junctions.corner-detail value="5"/>
        <junctions.limit-turn-speed value="5.50"/>
        <rectangular-lane-cut value="0"/>
    </junctions>

    <pedestrian>
        <walkingareas value="0"/>
    </pedestrian>

</configuration>
-->

<net version="1.20" junctionCornerDetail="5" limitTurnSpeed="5.50" xmlns:xsi="http://www.w3.org/2001/XMLSchema-instance" xsi:noNamespaceSchemaLocation="http://sumo.dlr.de/xsd/net_file.xsd">

    <location netOffset="0.00,0.00" convBoundary="0.00,-500.00,1000.00,500.00" origBoundary="-10000000000.00,-10000000000.00,10000000000.00,10000000000.00" projParameter="!"/>

    <edge id=":J3_0" function="internal">
        <lane id=":J3_0_0" index="0" speed="13.89" length="14.40" shape="498.40,7.20 498.40,-7.20"/>
    </edge>
    <edge id=":J3_1" function="internal">
        <lane id=":J3_1_0" index="0" speed="13.89" length="14.40" shape="507.20,1.60 492.80,1.60"/>
    </edge>
    <edge id=":J3_2" function="internal">
        <lane id=":J3_2_0" index="0" speed="13.89" length="14.40" shape="501.60,-7.20 501.60,7.20"/>
    </edge>
    <edge id=":J3_3" function="internal">
        <lane id=":J3_3_0" index="0" speed="13.89" length="14.40" shape="492.80,-1.60 507.20,-1.60"/>
    </edge>

    <edge id="-EE" from="J1" to="J3" priority="-1">
        <lane id="-EE_0" index="0" speed="13.89" length="492.80" shape="1000.00,1.60 507.20,1.60"/>
    </edge>
    <edge id="-EN" from="J4" to="J3" priority="-1">
        <lane id="-EN_0" index="0" speed="13.89" length="492.80" shape="498.40,500.00 498.40,7.20"/>
    </edge>
    <edge id="-ES" from="J3" to="J2" priority="-1">
        <lane id="-ES_0" index="0" speed="13.89" length="492.80" shape="498.40,-7.20 498.40,-500.00"/>
    </edge>
    <edge id="-EW" from="J3" to="J0" priority="-1">
        <lane id="-EW_0" index="0" speed="13.89" length="492.80" shape="492.80,1.60 0.00,1.60"/>
    </edge>
    <edge id="EE" from="J3" to="J1" priority="-1">
        <lane id="EE_0" index="0" speed="13.89" length="492.80" shape="507.20,-1.60 1000.00,-1.60"/>
    </edge>
    <edge id="EN" from="J3" to="J4" priority="-1">
        <lane id="EN_0" index="0" speed="13.89" length="492.80" shape="501.60,7.20 501.60,500.00"/>
    </edge>
    <edge id="ES" from="J2" to="J3" priority="-1">
        <lane id="ES_0" index="0" speed="13.89" length="492.80" shape="501.60,-500.00 501.60,-7.20"/>
    </edge>
    <edge id="EW" from="J0" to="J3" priority="-1">
        <lane id="EW_0" index="0" speed="13.89" length="492.80" shape="0.00,-1.60 492.80,-1.60"/>
    </edge>

    <tlLogic id="TLS1" type="static" programID="0" offset="0">
        <phase duration="120" state="GrGr"/>
        <phase duration="3"  state="yryr"/>
        <phase duration="120" state="rGrG"/>
        <phase duration="3"  state="ryry"/>
        <param key="barrier2Phases" value="2,6"/>
        <param key="barrierPhases" value="4,8"/>
        <param key="ring1" value="0,2,0,4"/>
        <param key="ring2" value="0,6,0,8"/>
    </tlLogic>

    <junction id="J0" type="dead_end" x="0.00" y="0.00" incLanes="-EW_0" intLanes="" shape="0.00,0.00 0.00,3.20 0.00,0.00"/>
    <junction id="J1" type="dead_end" x="1000.00" y="0.00" incLanes="EE_0" intLanes="" shape="1000.00,0.00 1000.00,-3.20 1000.00,0.00"/>
    <junction id="J2" type="dead_end" x="500.00" y="-500.00" incLanes="-ES_0" intLanes="" shape="500.00,-500.00 496.80,-500.00 500.00,-500.00"/>
    <junction id="J3" type="traffic_light" x="500.00" y="0.00" incLanes="-EN_0 -EE_0 ES_0 EW_0" intLanes=":J3_0_0 :J3_1_0 :J3_2_0 :J3_3_0" shape="496.80,7.20 503.20,7.20 503.64,4.98 504.20,4.20 504.98,3.64 505.98,3.31 507.20,3.20 507.20,-3.20 504.98,-3.64 504.20,-4.20 503.64,-4.98 503.31,-5.98 503.20,-7.20 496.80,-7.20 496.36,-4.98 495.80,-4.20 495.02,-3.64 494.02,-3.31 492.80,-3.20 492.80,3.20 495.02,3.64 495.80,4.20 496.36,4.98 496.69,5.98">
        <request index="0" response="0000" foes="1010" cont="0"/>
        <request index="1" response="0101" foes="0101" cont="0"/>
        <request index="2" response="0000" foes="1010" cont="0"/>
        <request index="3" response="0101" foes="0101" cont="0"/>
    </junction>
    <junction id="J4" type="dead_end" x="500.00" y="500.00" incLanes="EN_0" intLanes="" shape="500.00,500.00 503.20,500.00 500.00,500.00"/>

    <connection from="-EE" to="-EW" fromLane="0" toLane="0" via=":J3_1_0" tl="TLS1" linkIndex="1" dir="s" state="o"/>
    <connection from="-EN" to="-ES" fromLane="0" toLane="0" via=":J3_0_0" tl="TLS1" linkIndex="0" dir="s" state="O"/>
    <connection from="ES" to="EN" fromLane="0" toLane="0" via=":J3_2_0" tl="TLS1" linkIndex="2" dir="s" state="O"/>
    <connection from="EW" to="EE" fromLane="0" toLane="0" via=":J3_3_0" tl="TLS1" linkIndex="3" dir="s" state="o"/>

    <connection from=":J3_0" to="-ES" fromLane="0" toLane="0" dir="s" state="M"/>
    <connection from=":J3_1" to="-EW" fromLane="0" toLane="0" dir="s" state="M"/>
    <connection from=":J3_2" to="EN" fromLane="0" toLane="0" dir="s" state="M"/>
    <connection from=":J3_3" to="EE" fromLane="0" toLane="0" dir="s" state="M"/>

</net>
