<routes>
        <vType id="car" accel="0.8" decel="4.5" sigma="0.5" length="5" minGap="2.5" maxSpeed="16.67" guiShape="passenger"/>
        <vType id="bus" accel="0.8" decel="4.5" sigma="0.5" length="7" minGap="3" maxSpeed="25" guiShape="bus"/>

        <route id="right" edges="-EE -EW" />
        <route id="left" edges="EW EE" />
        <route id="down" edges="-EN -ES" />
        <route id="up" edges="ES EN" />
    <vehicle id="right_0" type="car" route="right" depart="2" />
    <vehicle id="up_1" type="car" route="up" depart="2"/>
    <vehicle id="down_2" type="car" route="down" depart="4"/>
    <vehicle id="right_3" type="car" route="right" depart="6" />
    <vehicle id="left_4" type="car" route="left" depart="7" />
    <vehicle id="left_5" type="car" route="left" depart="10" />
    <vehicle id="up_6" type="car" route="up" depart="10"/>
    <vehicle id="left_7" type="car" route="left" depart="13" />
    <vehicle id="down_8" type="car" route="down" depart="13"/>
    <vehicle id="left_9" type="car" route="left" depart="14" />
    <vehicle id="up_10" type="car" route="up" depart="14"/>
    <vehicle id="right_11" type="car" route="right" depart="15" />
    <vehicle id="up_12" type="car" route="up" depart="17"/>
    <vehicle id="up_13" type="car" route="up" depart="20"/>
    <vehicle id="down_14" type="car" route="down" depart="25"/>
    <vehicle id="left_15" type="car" route="left" depart="26" />
    <vehicle id="left_16" type="car" route="left" depart="27" />
    <vehicle id="up_17" type="car" route="up" depart="31"/>
    <vehicle id="right_18" type="car" route="right" depart="32" />
    <vehicle id="up_19" type="car" route="up" depart="32"/>
    <vehicle id="left_20" type="car" route="left" depart="35" />
    <vehicle id="down_21" type="car" route="down" depart="40"/>
    <vehicle id="up_22" type="car" route="up" depart="42"/>
    <vehicle id="right_23" type="car" route="right" depart="43" />
    <vehicle id="right_24" type="car" route="right" depart="44" />
    <vehicle id="up_25" type="car" route="up" depart="45"/>
    <vehicle id="left_26" type="car" route="left" depart="46" />
    <vehicle id="down_27" type="car" route="down" depart="46"/>
    <vehicle id="left_28" type="car" route="left" depart="49" />
    <vehicle id="right_29" type="car" route="right" depart="50" />
    <vehicle id="right_30" type="car" route="right" depart="51" />
    <vehicle id="down_31" type="car" route="down" depart="54"/>
    <vehicle id="down_32" type="car" route="down" depart="59"/>
    <vehicle id="right_33" type="car" route="right" depart="62" />
    <vehicle id="left_34" type="car" route="left" depart="69" />
    <vehicle id="down_35" type="car" route="down" depart="69"/>
    <vehicle id="down_36" type="car" route="down" depart="75"/>
    <vehicle id="right_37" type="car" route="right" depart="80" />
    <vehicle id="down_38" type="car" route="down" depart="81"/>
    <vehicle id="up_39" type="car" route="up" depart="87"/>
    <vehicle id="down_40" type="car" route="down" depart="88"/>
    <vehicle id="right_41" type="car" route="right" depart="89" />
    <vehicle id="up_42" type="car" route="up" depart="89"/>
    <vehicle id="left_43" type="car" route="left" depart="92" />
    <vehicle id="down_44" type="car" route="down" depart="93"/>
    <vehicle id="down_45" type="car" route="down" depart="96"/>
    <vehicle id="right_46" type="car" route="right" depart="97" />
    <vehicle id="down_47" type="car" route="down" depart="97"/>
    <vehicle id="up_48" type="car" route="up" depart="97"/>
    <vehicle id="up_49" type="car" route="up" depart="98"/>
    <vehicle id="right_50" type="car" route="right" depart="102" />
    <vehicle id="down_51" type="car" route="down" depart="104"/>
    <vehicle id="right_52" type="car" route="right" depart="110" />
    <vehicle id="left_53" type="car" route="left" depart="111" />
    <vehicle id="left_54" type="car" route="left" depart="115" />
    <vehicle id="up_55" type="car" route="up" depart="115"/>
    <vehicle id="left_56" type="car" route="left" depart="117" />
    <vehicle id="left_57" type="car" route="left" depart="121" />
    <vehicle id="down_58" type="car" route="down" depart="122"/>
    <vehicle id="down_59" type="car" route="down" depart="123"/>
    <vehicle id="right_60" type="car" route="right" depart="125" />
    <vehicle id="up_61" type="car" route="up" depart="134"/>
    <vehicle id="right_62" type="car" route="right" depart="138" />
    <vehicle id="right_63" type="car" route="right" depart="140" />
    <vehicle id="down_64" type="car" route="down" depart="140"/>
    <vehicle id="up_65" type="car" route="up" depart="143"/>
    <vehicle id="right_66" type="car" route="right" depart="144" />
    <vehicle id="down_67" type="car" route="down" depart="145"/>
    <vehicle id="down_68" type="car" route="down" depart="149"/>
    <vehicle id="down_69" type="car" route="down" depart="151"/>
    <vehicle id="right_70" type="car" route="right" depart="153" />
    <vehicle id="right_71" type="car" route="right" depart="155" />
    <vehicle id="right_72" type="car" route="right" depart="156" />
    <vehicle id="up_73" type="car" route="up" depart="158"/>
    <vehicle id="down_74" type="car" route="down" depart="164"/>
    <vehicle id="down_75" type="car" route="down" depart="167"/>
    <vehicle id="down_76" type="car" route="down" depart="168"/>
    <vehicle id="right_77" type="car" route="right" depart="170" />
    <vehicle id="left_78" type="car" route="left" depart="170" />
    <vehicle id="left_79" type="car" route="left" depart="172" />
    <vehicle id="right_80" type="car" route="right" depart="173" />
    <vehicle id="left_81" type="car" route="left" depart="174" />
    <vehicle id="right_82" type="car" route="right" depart="175" />
    <vehicle id="left_83" type="car" route="left" depart="175" />
    <vehicle id="left_84" type="car" route="left" depart="176" />
    <vehicle id="down_85" type="car" route="down" depart="181"/>
    <vehicle id="right_86" type="car" route="right" depart="184" />
    <vehicle id="right_87" type="car" route="right" depart="186" />
    <vehicle id="up_88" type="car" route="up" depart="187"/>
    <vehicle id="left_89" type="car" route="left" depart="188" />
    <vehicle id="right_90" type="car" route="right" depart="190" />
    <vehicle id="left_91" type="car" route="left" depart="190" />
    <vehicle id="down_92" type="car" route="down" depart="193"/>
    <vehicle id="right_93" type="car" route="right" depart="196" />
    <vehicle id="down_94" type="car" route="down" depart="197"/>
    <vehicle id="right_95" type="car" route="right" depart="199" />
    <vehicle id="left_96" type="car" route="left" depart="205" />
    <vehicle id="right_97" type="car" route="right" depart="206" />
    <vehicle id="left_98" type="car" route="left" depart="207" />
    <vehicle id="right_99" type="car" route="right" depart="208" />
    <vehicle id="down_100" type="car" route="down" depart="208"/>
    <vehicle id="up_101" type="car" route="up" depart="209"/>
    <vehicle id="right_102" type="car" route="right" depart="216" />
    <vehicle id="down_103" type="car" route="down" depart="216"/>
    <vehicle id="up_104" type="car" route="up" depart="217"/>
    <vehicle id="left_105" type="car" route="left" depart="221" />
    <vehicle id="up_106" type="car" route="up" depart="222"/>
    <vehicle id="right_107" type="car" route="right" depart="228" />
    <vehicle id="up_108" type="car" route="up" depart="229"/>
    <vehicle id="left_109" type="car" route="left" depart="231" />
    <vehicle id="up_110" type="car" route="up" depart="235"/>
    <vehicle id="right_111" type="car" route="right" depart="236" />
    <vehicle id="right_112" type="car" route="right" depart="238" />
    <vehicle id="right_113" type="car" route="right" depart="239" />
    <vehicle id="right_114" type="car" route="right" depart="240" />
    <vehicle id="left_115" type="car" route="left" depart="242" />
    <vehicle id="right_116" type="car" route="right" depart="243" />
    <vehicle id="left_117" type="car" route="left" depart="244" />
    <vehicle id="up_118" type="car" route="up" depart="245"/>
    <vehicle id="up_119" type="car" route="up" depart="247"/>
    <vehicle id="right_120" type="car" route="right" depart="249" />
    <vehicle id="up_121" type="car" route="up" depart="249"/>
    <vehicle id="right_122" type="car" route="right" depart="250" />
    <vehicle id="down_123" type="car" route="down" depart="252"/>
    <vehicle id="left_124" type="car" route="left" depart="255" />
    <vehicle id="right_125" type="car" route="right" depart="256" />
    <vehicle id="right_126" type="car" route="right" depart="257" />
    <vehicle id="up_127" type="car" route="up" depart="258"/>
    <vehicle id="right_128" type="car" route="right" depart="262" />
    <vehicle id="right_129" type="car" route="right" depart="265" />
    <vehicle id="right_130" type="car" route="right" depart="268" />
    <vehicle id="right_131" type="car" route="right" depart="270" />
    <vehicle id="left_132" type="car" route="left" depart="270" />
    <vehicle id="up_133" type="car" route="up" depart="273"/>
    <vehicle id="right_134" type="car" route="right" depart="277" />
    <vehicle id="left_135" type="car" route="left" depart="277" />
    <vehicle id="left_136" type="car" route="left" depart="278" />
    <vehicle id="left_137" type="car" route="left" depart="284" />
    <vehicle id="up_138" type="car" route="up" depart="286"/>
    <vehicle id="right_139" type="car" route="right" depart="294" />
    <vehicle id="up_140" type="car" route="up" depart="295"/>
    <vehicle id="left_141" type="car" route="left" depart="298" />
    <vehicle id="right_142" type="car" route="right" depart="300" />
    <vehicle id="right_143" type="car" route="right" depart="301" />
    <vehicle id="left_144" type="car" route="left" depart="303" />
    <vehicle id="up_145" type="car" route="up" depart="304"/>
    <vehicle id="right_146" type="car" route="right" depart="305" />
    <vehicle id="left_147" type="car" route="left" depart="313" />
    <vehicle id="left_148" type="car" route="left" depart="316" />
    <vehicle id="right_149" type="car" route="right" depart="317" />
    <vehicle id="down_150" type="car" route="down" depart="318"/>
    <vehicle id="up_151" type="car" route="up" depart="320"/>
    <vehicle id="right_152" type="car" route="right" depart="322" />
    <vehicle id="left_153" type="car" route="left" depart="324" />
    <vehicle id="right_154" type="car" route="right" depart="325" />
    <vehicle id="down_155" type="car" route="down" depart="328"/>
    <vehicle id="down_156" type="car" route="down" depart="329"/>
    <vehicle id="up_157" type="car" route="up" depart="331"/>
    <vehicle id="right_158" type="car" route="right" depart="342" />
    <vehicle id="right_159" type="car" route="right" depart="343" />
    <vehicle id="down_160" type="car" route="down" depart="343"/>
    <vehicle id="left_161" type="car" route="left" depart="345" />
    <vehicle id="up_162" type="car" route="up" depart="349"/>
    <vehicle id="down_163" type="car" route="down" depart="352"/>
    <vehicle id="right_164" type="car" route="right" depart="355" />
    <vehicle id="down_165" type="car" route="down" depart="356"/>
    <vehicle id="left_166" type="car" route="left" depart="358" />
    <vehicle id="down_167" type="car" route="down" depart="358"/>
    <vehicle id="right_168" type="car" route="right" depart="360" />
    <vehicle id="left_169" type="car" route="left" depart="360" />
    <vehicle id="down_170" type="car" route="down" depart="360"/>
    <vehicle id="down_171" type="car" route="down" depart="362"/>
    <vehicle id="left_172" type="car" route="left" depart="363" />
    <vehicle id="left_173" type="car" route="left" depart="364" />
    <vehicle id="right_174" type="car" route="right" depart="365" />
    <vehicle id="up_175" type="car" route="up" depart="365"/>
    <vehicle id="down_176" type="car" route="down" depart="367"/>
    <vehicle id="right_177" type="car" route="right" depart="369" />
    <vehicle id="right_178" type="car" route="right" depart="376" />
    <vehicle id="right_179" type="car" route="right" depart="380" />
    <vehicle id="up_180" type="car" route="up" depart="380"/>
    <vehicle id="left_181" type="car" route="left" depart="383" />
    <vehicle id="down_182" type="car" route="down" depart="385"/>
    <vehicle id="right_183" type="car" route="right" depart="386" />
    <vehicle id="right_184" type="car" route="right" depart="388" />
    <vehicle id="down_185" type="car" route="down" depart="393"/>
    <vehicle id="down_186" type="car" route="down" depart="395"/>
    <vehicle id="down_187" type="car" route="down" depart="396"/>
    <vehicle id="left_188" type="car" route="left" depart="398" />
    <vehicle id="right_189" type="car" route="right" depart="399" />
    <vehicle id="right_190" type="car" route="right" depart="402" />
    <vehicle id="left_191" type="car" route="left" depart="404" />
    <vehicle id="right_192" type="car" route="right" depart="406" />
    <vehicle id="down_193" type="car" route="down" depart="414"/>
    <vehicle id="down_194" type="car" route="down" depart="416"/>
    <vehicle id="up_195" type="car" route="up" depart="416"/>
    <vehicle id="down_196" type="car" route="down" depart="417"/>
    <vehicle id="left_197" type="car" route="left" depart="423" />
    <vehicle id="down_198" type="car" route="down" depart="424"/>
    <vehicle id="up_199" type="car" route="up" depart="437"/>
    <vehicle id="right_200" type="car" route="right" depart="439" />
    <vehicle id="down_201" type="car" route="down" depart="440"/>
    <vehicle id="left_202" type="car" route="left" depart="443" />
    <vehicle id="down_203" type="car" route="down" depart="445"/>
    <vehicle id="down_204" type="car" route="down" depart="446"/>
    <vehicle id="right_205" type="car" route="right" depart="448" />
    <vehicle id="left_206" type="car" route="left" depart="448" />
    <vehicle id="left_207" type="car" route="left" depart="449" />
    <vehicle id="up_208" type="car" route="up" depart="449"/>
    <vehicle id="up_209" type="car" route="up" depart="450"/>
    <vehicle id="down_210" type="car" route="down" depart="451"/>
    <vehicle id="left_211" type="car" route="left" depart="452" />
    <vehicle id="right_212" type="car" route="right" depart="455" />
    <vehicle id="right_213" type="car" route="right" depart="456" />
    <vehicle id="up_214" type="car" route="up" depart="457"/>
    <vehicle id="up_215" type="car" route="up" depart="466"/>
    <vehicle id="down_216" type="car" route="down" depart="470"/>
    <vehicle id="down_217" type="car" route="down" depart="473"/>
    <vehicle id="left_218" type="car" route="left" depart="474" />
    <vehicle id="down_219" type="car" route="down" depart="475"/>
    <vehicle id="right_220" type="car" route="right" depart="483" />
    <vehicle id="up_221" type="car" route="up" depart="486"/>
    <vehicle id="right_222" type="car" route="right" depart="490" />
    <vehicle id="left_223" type="car" route="left" depart="490" />
    <vehicle id="down_224" type="car" route="down" depart="490"/>
    <vehicle id="up_225" type="car" route="up" depart="490"/>
    <vehicle id="up_226" type="car" route="up" depart="491"/>
    <vehicle id="down_227" type="car" route="down" depart="493"/>
    <vehicle id="down_228" type="car" route="down" depart="497"/>
    <vehicle id="right_229" type="car" route="right" depart="500" />
    <vehicle id="down_230" type="car" route="down" depart="500"/>
    <vehicle id="up_231" type="car" route="up" depart="501"/>
    <vehicle id="left_232" type="car" route="left" depart="515" />
    <vehicle id="down_233" type="car" route="down" depart="516"/>
    <vehicle id="left_234" type="car" route="left" depart="517" />
    <vehicle id="left_235" type="car" route="left" depart="520" />
    <vehicle id="left_236" type="car" route="left" depart="521" />
    <vehicle id="up_237" type="car" route="up" depart="522"/>
    <vehicle id="up_238" type="car" route="up" depart="523"/>
    <vehicle id="up_239" type="car" route="up" depart="525"/>
    <vehicle id="left_240" type="car" route="left" depart="526" />
    <vehicle id="down_241" type="car" route="down" depart="526"/>
    <vehicle id="down_242" type="car" route="down" depart="527"/>
    <vehicle id="right_243" type="car" route="right" depart="530" />
    <vehicle id="up_244" type="car" route="up" depart="537"/>
    <vehicle id="right_245" type="car" route="right" depart="539" />
    <vehicle id="left_246" type="car" route="left" depart="539" />
    <vehicle id="right_247" type="car" route="right" depart="540" />
    <vehicle id="left_248" type="car" route="left" depart="540" />
    <vehicle id="right_249" type="car" route="right" depart="545" />
    <vehicle id="left_250" type="car" route="left" depart="551" />
    <vehicle id="right_251" type="car" route="right" depart="552" />
    <vehicle id="up_252" type="car" route="up" depart="553"/>
    <vehicle id="up_253" type="car" route="up" depart="554"/>
    <vehicle id="right_254" type="car" route="right" depart="556" />
    <vehicle id="down_255" type="car" route="down" depart="556"/>
    <vehicle id="up_256" type="car" route="up" depart="556"/>
    <vehicle id="down_257" type="car" route="down" depart="561"/>
    <vehicle id="up_258" type="car" route="up" depart="561"/>
    <vehicle id="left_259" type="car" route="left" depart="563" />
    <vehicle id="down_260" type="car" route="down" depart="565"/>
    <vehicle id="up_261" type="car" route="up" depart="565"/>
    <vehicle id="left_262" type="car" route="left" depart="572" />
    <vehicle id="down_263" type="car" route="down" depart="573"/>
    <vehicle id="up_264" type="car" route="up" depart="577"/>
    <vehicle id="right_265" type="car" route="right" depart="580" />
    <vehicle id="down_266" type="car" route="down" depart="582"/>
    <vehicle id="left_267" type="car" route="left" depart="586" />
    <vehicle id="down_268" type="car" route="down" depart="587"/>
    <vehicle id="down_269" type="car" route="down" depart="588"/>
    <vehicle id="down_270" type="car" route="down" depart="593"/>
    <vehicle id="right_271" type="car" route="right" depart="594" />
    <vehicle id="left_272" type="car" route="left" depart="594" />
    <vehicle id="up_273" type="car" route="up" depart="595"/>
    <vehicle id="right_274" type="car" route="right" depart="597" />
    <vehicle id="left_275" type="car" route="left" depart="600" />
    <vehicle id="right_276" type="car" route="right" depart="601" />
    <vehicle id="right_277" type="car" route="right" depart="603" />
    <vehicle id="right_278" type="car" route="right" depart="604" />
    <vehicle id="up_279" type="car" route="up" depart="604"/>
    <vehicle id="left_280" type="car" route="left" depart="608" />
    <vehicle id="left_281" type="car" route="left" depart="609" />
    <vehicle id="left_282" type="car" route="left" depart="610" />
    <vehicle id="up_283" type="car" route="up" depart="610"/>
    <vehicle id="down_284" type="car" route="down" depart="612"/>
    <vehicle id="left_285" type="car" route="left" depart="613" />
    <vehicle id="down_286" type="car" route="down" depart="614"/>
    <vehicle id="right_287" type="car" route="right" depart="615" />
    <vehicle id="left_288" type="car" route="left" depart="619" />
    <vehicle id="up_289" type="car" route="up" depart="619"/>
    <vehicle id="right_290" type="car" route="right" depart="623" />
    <vehicle id="left_291" type="car" route="left" depart="623" />
    <vehicle id="right_292" type="car" route="right" depart="624" />
    <vehicle id="left_293" type="car" route="left" depart="626" />
    <vehicle id="down_294" type="car" route="down" depart="626"/>
    <vehicle id="left_295" type="car" route="left" depart="628" />
    <vehicle id="right_296" type="car" route="right" depart="630" />
    <vehicle id="down_297" type="car" route="down" depart="631"/>
    <vehicle id="left_298" type="car" route="left" depart="636" />
    <vehicle id="up_299" type="car" route="up" depart="641"/>
    <vehicle id="down_300" type="car" route="down" depart="642"/>
    <vehicle id="down_301" type="car" route="down" depart="643"/>
    <vehicle id="left_302" type="car" route="left" depart="645" />
    <vehicle id="left_303" type="car" route="left" depart="646" />
    <vehicle id="right_304" type="car" route="right" depart="648" />
    <vehicle id="down_305" type="car" route="down" depart="648"/>
    <vehicle id="down_306" type="car" route="down" depart="649"/>
    <vehicle id="right_307" type="car" route="right" depart="653" />
    <vehicle id="right_308" type="car" route="right" depart="655" />
    <vehicle id="up_309" type="car" route="up" depart="658"/>
    <vehicle id="right_310" type="car" route="right" depart="660" />
    <vehicle id="up_311" type="car" route="up" depart="660"/>
    <vehicle id="right_312" type="car" route="right" depart="661" />
    <vehicle id="left_313" type="car" route="left" depart="661" />
    <vehicle id="up_314" type="car" route="up" depart="666"/>
    <vehicle id="right_315" type="car" route="right" depart="667" />
    <vehicle id="up_316" type="car" route="up" depart="667"/>
    <vehicle id="left_317" type="car" route="left" depart="668" />
    <vehicle id="down_318" type="car" route="down" depart="673"/>
    <vehicle id="left_319" type="car" route="left" depart="674" />
    <vehicle id="left_320" type="car" route="left" depart="675" />
    <vehicle id="down_321" type="car" route="down" depart="676"/>
    <vehicle id="up_322" type="car" route="up" depart="678"/>
    <vehicle id="right_323" type="car" route="right" depart="680" />
    <vehicle id="left_324" type="car" route="left" depart="686" />
    <vehicle id="up_325" type="car" route="up" depart="686"/>
    <vehicle id="up_326" type="car" route="up" depart="687"/>
    <vehicle id="right_327" type="car" route="right" depart="689" />
    <vehicle id="up_328" type="car" route="up" depart="696"/>
    <vehicle id="right_329" type="car" route="right" depart="698" />
    <vehicle id="up_330" type="car" route="up" depart="700"/>
    <vehicle id="left_331" type="car" route="left" depart="702" />
    <vehicle id="up_332" type="car" route="up" depart="702"/>
    <vehicle id="left_333" type="car" route="left" depart="704" />
    <vehicle id="down_334" type="car" route="down" depart="704"/>
    <vehicle id="down_335" type="car" route="down" depart="707"/>
    <vehicle id="down_336" type="car" route="down" depart="708"/>
    <vehicle id="up_337" type="car" route="up" depart="714"/>
    <vehicle id="up_338" type="car" route="up" depart="721"/>
    <vehicle id="left_339" type="car" route="left" depart="722" />
    <vehicle id="down_340" type="car" route="down" depart="724"/>
    <vehicle id="right_341" type="car" route="right" depart="725" />
    <vehicle id="left_342" type="car" route="left" depart="726" />
    <vehicle id="right_343" type="car" route="right" depart="727" />
    <vehicle id="left_344" type="car" route="left" depart="727" />
    <vehicle id="left_345" type="car" route="left" depart="732" />
    <vehicle id="down_346" type="car" route="down" depart="733"/>
    <vehicle id="left_347" type="car" route="left" depart="735" />
    <vehicle id="down_348" type="car" route="down" depart="744"/>
    <vehicle id="down_349" type="car" route="down" depart="745"/>
    <vehicle id="down_350" type="car" route="down" depart="746"/>
    <vehicle id="right_351" type="car" route="right" depart="751" />
    <vehicle id="right_352" type="car" route="right" depart="752" />
    <vehicle id="down_353" type="car" route="down" depart="752"/>
    <vehicle id="left_354" type="car" route="left" depart="754" />
    <vehicle id="up_355" type="car" route="up" depart="754"/>
    <vehicle id="right_356" type="car" route="right" depart="755" />
    <vehicle id="up_357" type="car" route="up" depart="755"/>
    <vehicle id="right_358" type="car" route="right" depart="758" />
    <vehicle id="left_359" type="car" route="left" depart="760" />
    <vehicle id="down_360" type="car" route="down" depart="760"/>
    <vehicle id="right_361" type="car" route="right" depart="762" />
    <vehicle id="left_362" type="car" route="left" depart="765" />
    <vehicle id="left_363" type="car" route="left" depart="768" />
    <vehicle id="down_364" type="car" route="down" depart="768"/>
    <vehicle id="right_365" type="car" route="right" depart="769" />
    <vehicle id="right_366" type="car" route="right" depart="777" />
    <vehicle id="right_367" type="car" route="right" depart="781" />
    <vehicle id="left_368" type="car" route="left" depart="781" />
    <vehicle id="left_369" type="car" route="left" depart="795" />
    <vehicle id="down_370" type="car" route="down" depart="798"/>
    <vehicle id="right_371" type="car" route="right" depart="799" />
    <vehicle id="down_372" type="car" route="down" depart="799"/>
    <vehicle id="left_373" type="car" route="left" depart="800" />
    <vehicle id="up_374" type="car" route="up" depart="800"/>
    <vehicle id="down_375" type="car" route="down" depart="801"/>
    <vehicle id="right_376" type="car" route="right" depart="803" />
    <vehicle id="left_377" type="car" route="left" depart="803" />
    <vehicle id="right_378" type="car" route="right" depart="805" />
    <vehicle id="up_379" type="car" route="up" depart="808"/>
    <vehicle id="up_380" type="car" route="up" depart="809"/>
    <vehicle id="left_381" type="car" route="left" depart="810" />
    <vehicle id="right_382" type="car" route="right" depart="811" />
    <vehicle id="up_383" type="car" route="up" depart="811"/>
    <vehicle id="left_384" type="car" route="left" depart="812" />
    <vehicle id="up_385" type="car" route="up" depart="816"/>
    <vehicle id="right_386" type="car" route="right" depart="818" />
    <vehicle id="up_387" type="car" route="up" depart="818"/>
    <vehicle id="right_388" type="car" route="right" depart="822" />
    <vehicle id="right_389" type="car" route="right" depart="824" />
    <vehicle id="down_390" type="car" route="down" depart="825"/>
    <vehicle id="up_391" type="car" route="up" depart="825"/>
    <vehicle id="down_392" type="car" route="down" depart="828"/>
    <vehicle id="right_393" type="car" route="right" depart="835" />
    <vehicle id="right_394" type="car" route="right" depart="842" />
    <vehicle id="down_395" type="car" route="down" depart="843"/>
    <vehicle id="down_396" type="car" route="down" depart="848"/>
    <vehicle id="right_397" type="car" route="right" depart="850" />
    <vehicle id="left_398" type="car" route="left" depart="851" />
    <vehicle id="left_399" type="car" route="left" depart="852" />
    <vehicle id="down_400" type="car" route="down" depart="855"/>
    <vehicle id="right_401" type="car" route="right" depart="866" />
    <vehicle id="left_402" type="car" route="left" depart="867" />
    <vehicle id="up_403" type="car" route="up" depart="867"/>
    <vehicle id="down_404" type="car" route="down" depart="868"/>
    <vehicle id="right_405" type="car" route="right" depart="873" />
    <vehicle id="down_406" type="car" route="down" depart="875"/>
    <vehicle id="up_407" type="car" route="up" depart="881"/>
    <vehicle id="up_408" type="car" route="up" depart="882"/>
    <vehicle id="right_409" type="car" route="right" depart="883" />
    <vehicle id="right_410" type="car" route="right" depart="885" />
    <vehicle id="left_411" type="car" route="left" depart="886" />
    <vehicle id="left_412" type="car" route="left" depart="891" />
    <vehicle id="right_413" type="car" route="right" depart="893" />
    <vehicle id="left_414" type="car" route="left" depart="895" />
    <vehicle id="left_415" type="car" route="left" depart="905" />
    <vehicle id="up_416" type="car" route="up" depart="905"/>
    <vehicle id="right_417" type="car" route="right" depart="908" />
    <vehicle id="left_418" type="car" route="left" depart="908" />
    <vehicle id="up_419" type="car" route="up" depart="910"/>
    <vehicle id="down_420" type="car" route="down" depart="912"/>
    <vehicle id="right_421" type="car" route="right" depart="916" />
    <vehicle id="right_422" type="car" route="right" depart="917" />
    <vehicle id="right_423" type="car" route="right" depart="919" />
    <vehicle id="left_424" type="car" route="left" depart="919" />
    <vehicle id="up_425" type="car" route="up" depart="919"/>
    <vehicle id="up_426" type="car" route="up" depart="925"/>
    <vehicle id="left_427" type="car" route="left" depart="927" />
    <vehicle id="down_428" type="car" route="down" depart="931"/>
    <vehicle id="up_429" type="car" route="up" depart="931"/>
    <vehicle id="down_430" type="car" route="down" depart="934"/>
    <vehicle id="down_431" type="car" route="down" depart="935"/>
    <vehicle id="up_432" type="car" route="up" depart="937"/>
    <vehicle id="right_433" type="car" route="right" depart="939" />
    <vehicle id="right_434" type="car" route="right" depart="941" />
    <vehicle id="left_435" type="car" route="left" depart="942" />
    <vehicle id="left_436" type="car" route="left" depart="943" />
    <vehicle id="right_437" type="car" route="right" depart="950" />
    <vehicle id="down_438" type="car" route="down" depart="950"/>
    <vehicle id="down_439" type="car" route="down" depart="953"/>
    <vehicle id="right_440" type="car" route="right" depart="956" />
    <vehicle id="down_441" type="car" route="down" depart="960"/>
    <vehicle id="up_442" type="car" route="up" depart="967"/>
    <vehicle id="down_443" type="car" route="down" depart="969"/>
    <vehicle id="up_444" type="car" route="up" depart="970"/>
    <vehicle id="right_445" type="car" route="right" depart="974" />
    <vehicle id="left_446" type="car" route="left" depart="974" />
    <vehicle id="down_447" type="car" route="down" depart="975"/>